 (TOTAL 523355 bits 511 Kbits) 
*** ChampSim Multicore Out-of-Order Simulator ***

Warmup Instructions: 50000000
Simulation Instructions: 200000000
Number of CPUs: 1
LLC sets: 2048
LLC ways: 16
Off-chip DRAM Size: 4096 MB Channels: 1 Width: 64-bit Data Rate: 6400 MT/s
argv[0]: ./ChampSim/Berti/bin/tagescl-no-vberti-no-no-no-no-no-lru-lru-lru-srrip-drrip-lru-lru-lru-1core-no
argv[1]: -warmup_instructions
argv[2]: 50000000
argv[3]: -simulation_instructions
argv[4]: 200000000
argv[5]: -traces
argv[6]: traces/spec2k17_ten/657.xz_s-2302B.champsimtrace.xz
CPU 0 runs traces/spec2k17_ten/657.xz_s-2302B.champsimtrace.xz
.xz
CPU 0 Tage branch predictor
BTB has LRU replacement policy
ITLB has LRU replacement policy
DTLB has LRU replacement policy
STLB has LRU replacement policy
L1I has LRU replacement policy
History Sets: 8
History Ways: 16
BERTI Size: 16
BERTI Stride Size: 16
L1D has LRU replacement policy
Initialize SRRIP state for L2C
Initialize DRRIP state for LLC
Heartbeat CPU 0 instructions: 10000003 cycles: 2790406 heartbeat IPC: 3.58371 cumulative IPC: 3.58371 (Simulation time: 0 hr 7 min 15 sec) 
Heartbeat CPU 0 instructions: 20000002 cycles: 5585082 heartbeat IPC: 3.57823 cumulative IPC: 3.58097 (Simulation time: 0 hr 15 min 10 sec) 
Heartbeat CPU 0 instructions: 30000000 cycles: 8410824 heartbeat IPC: 3.53889 cumulative IPC: 3.56683 (Simulation time: 0 hr 20 min 33 sec) 
Heartbeat CPU 0 instructions: 40000003 cycles: 11196710 heartbeat IPC: 3.58952 cumulative IPC: 3.57248 (Simulation time: 0 hr 25 min 31 sec) 
Heartbeat CPU 0 instructions: 50000000 cycles: 13988524 heartbeat IPC: 3.5819 cumulative IPC: 3.57436 (Simulation time: 0 hr 29 min 58 sec) 

Warmup complete CPU 0 instructions: 50000004 cycles: 13988525 (Simulation time: 0 hr 29 min 58 sec) 

Heartbeat CPU 0 instructions: 60000001 cycles: 31319843 heartbeat IPC: 0.57699 cumulative IPC: 0.57699 (Simulation time: 0 hr 34 min 32 sec) 
Heartbeat CPU 0 instructions: 70000000 cycles: 48013807 heartbeat IPC: 0.599019 cumulative IPC: 0.587798 (Simulation time: 0 hr 37 min 28 sec) 
Heartbeat CPU 0 instructions: 80000003 cycles: 65144456 heartbeat IPC: 0.583749 cumulative IPC: 0.586442 (Simulation time: 0 hr 42 min 38 sec) 
Heartbeat CPU 0 instructions: 90000002 cycles: 82571863 heartbeat IPC: 0.573809 cumulative IPC: 0.583232 (Simulation time: 0 hr 47 min 30 sec) 
Heartbeat CPU 0 instructions: 100000001 cycles: 99239432 heartbeat IPC: 0.599967 cumulative IPC: 0.586504 (Simulation time: 0 hr 52 min 8 sec) 
Heartbeat CPU 0 instructions: 110000000 cycles: 116573387 heartbeat IPC: 0.576902 cumulative IPC: 0.584882 (Simulation time: 0 hr 57 min 5 sec) 
Heartbeat CPU 0 instructions: 120000003 cycles: 134139779 heartbeat IPC: 0.569269 cumulative IPC: 0.582599 (Simulation time: 1 hr 1 min 48 sec) 
Heartbeat CPU 0 instructions: 130000000 cycles: 151716568 heartbeat IPC: 0.568932 cumulative IPC: 0.580855 (Simulation time: 1 hr 5 min 35 sec) 
Heartbeat CPU 0 instructions: 140000000 cycles: 167926107 heartbeat IPC: 0.616921 cumulative IPC: 0.584653 (Simulation time: 1 hr 8 min 6 sec) 
Heartbeat CPU 0 instructions: 150000003 cycles: 185476884 heartbeat IPC: 0.569776 cumulative IPC: 0.58313 (Simulation time: 1 hr 10 min 32 sec) 
Heartbeat CPU 0 instructions: 160000003 cycles: 203076755 heartbeat IPC: 0.568186 cumulative IPC: 0.581739 (Simulation time: 1 hr 12 min 54 sec) 
Heartbeat CPU 0 instructions: 170000000 cycles: 218382232 heartbeat IPC: 0.653361 cumulative IPC: 0.587102 (Simulation time: 1 hr 14 min 44 sec) 
Heartbeat CPU 0 instructions: 180000001 cycles: 232968332 heartbeat IPC: 0.685584 cumulative IPC: 0.593662 (Simulation time: 1 hr 16 min 17 sec) 
Heartbeat CPU 0 instructions: 190000002 cycles: 247485732 heartbeat IPC: 0.688829 cumulative IPC: 0.599579 (Simulation time: 1 hr 17 min 40 sec) 
Heartbeat CPU 0 instructions: 200000002 cycles: 261986261 heartbeat IPC: 0.68963 cumulative IPC: 0.604844 (Simulation time: 1 hr 18 min 50 sec) 
Heartbeat CPU 0 instructions: 210000000 cycles: 276532636 heartbeat IPC: 0.687456 cumulative IPC: 0.609421 (Simulation time: 1 hr 20 min 0 sec) 
Heartbeat CPU 0 instructions: 220000000 cycles: 291121722 heartbeat IPC: 0.685444 cumulative IPC: 0.613423 (Simulation time: 1 hr 20 min 58 sec) 
Heartbeat CPU 0 instructions: 230000003 cycles: 305838426 heartbeat IPC: 0.6795 cumulative IPC: 0.616755 (Simulation time: 1 hr 21 min 49 sec) 
Heartbeat CPU 0 instructions: 240000001 cycles: 320642140 heartbeat IPC: 0.675506 cumulative IPC: 0.619592 (Simulation time: 1 hr 22 min 26 sec) 
Heartbeat CPU 0 instructions: 250000003 cycles: 335381445 heartbeat IPC: 0.678458 cumulative IPC: 0.622291 (Simulation time: 1 hr 23 min 3 sec) 
Finished CPU 0 instructions: 200000003 cycles: 321392921 cumulative IPC: 0.622291 (Simulation time: 1 hr 23 min 3 sec) 

ChampSim completed all CPUs

Region of Interest Statistics

CPU 0 cumulative IPC: 0.622291 instructions: 200000003 cycles: 321392921
ITLB TOTAL     ACCESS:   28724003  HIT:   28724003  MISS:          0  HIT %:        100  MISS %:          0   MPKI: 0
ITLB LOAD TRANSLATION ACCESS:   28724003  HIT:   28724003  MISS:          0  HIT %:        100  MISS %:          0   MPKI: 0
ITLB PREFETCH  REQUESTED:          0  ISSUED:          0  USEFUL:          0  USELESS:          0
ITLB USEFUL LOAD PREFETCHES:          0 PREFETCH ISSUED TO LOWER LEVEL:          0  ACCURACY: -nan
ITLB TIMELY PREFETCHES:          0 LATE PREFETCHES: 0 DROPPED PREFETCHES: 0
ITLB PREFETCHES SAME FILL-ORIGIN LEVEL: 0 DIFFERENT FILL-ORIGIN LEVEL: 0
ITLB AVERAGE MISS LATENCY: -nan cycles
ITLB RQ	ACCESS:   35115716	FORWARD:          0	MERGED:    6391714	TO_CACHE:   28724002

DTLB TOTAL     ACCESS:   40411326  HIT:   39491230  MISS:     920096  HIT %:    97.7232  MISS %:    2.27683   MPKI: 4.60048
DTLB LOAD TRANSLATION ACCESS:   40411326  HIT:   39491230  MISS:     920096  HIT %:    97.7232  MISS %:    2.27683   MPKI: 4.60048
DTLB PREFETCH  REQUESTED:          0  ISSUED:          0  USEFUL:          0  USELESS:          0
DTLB USEFUL LOAD PREFETCHES:          0 PREFETCH ISSUED TO LOWER LEVEL:          0  ACCURACY: -nan
DTLB TIMELY PREFETCHES:          0 LATE PREFETCHES: 0 DROPPED PREFETCHES: 0
DTLB PREFETCHES SAME FILL-ORIGIN LEVEL: 0 DIFFERENT FILL-ORIGIN LEVEL: 0
DTLB AVERAGE MISS LATENCY: 13.432 cycles
DTLB RQ	ACCESS:   49690586	FORWARD:          0	MERGED:    9272755	TO_CACHE:   40417831

STLB TOTAL     ACCESS:    1324744  HIT:    1190474  MISS:     134270  HIT %:    89.8645  MISS %:    10.1355   MPKI: 0.67135
STLB LOAD TRANSLATION ACCESS:     920096  HIT:     786024  MISS:     134072  HIT %:    85.4285  MISS %:    14.5715   MPKI: 0.67036
STLB TRANSLATION FROM L1D PREFETCHER ACCESS:     404648  HIT:     404450  MISS:        198  HIT %:    99.9511  MISS %:  0.0489314   MPKI: 0.00099
STLB PREFETCH  REQUESTED:          0  ISSUED:          0  USEFUL:        141  USELESS:         56
STLB USEFUL LOAD PREFETCHES:        141 PREFETCH ISSUED TO LOWER LEVEL:          0  ACCURACY: inf
STLB TIMELY PREFETCHES:        141 LATE PREFETCHES: 53 DROPPED PREFETCHES: 3340
STLB PREFETCHES SAME FILL-ORIGIN LEVEL: 0 DIFFERENT FILL-ORIGIN LEVEL: 0
STLB AVERAGE MISS LATENCY: 30.3183 cycles
STLB RQ	ACCESS:    2057395	FORWARD:          0	MERGED:     728132	TO_CACHE:    1329263

STLB Hit, L1D data hit: 0
STLB Hit, L2C data hit: 0
STLB Hit, LLC data hit: 0
STLB Hit, LLC data miss: 0
STLB STLB hints to L2: 0
L1D TOTAL     ACCESS:   50460890  HIT:   49341849  MISS:    1119041  HIT %:    97.7824  MISS %:    2.21764   MPKI: 5.5952
L1D LOAD      ACCESS:   32676952  HIT:   31701481  MISS:     975471  HIT %:    97.0148  MISS %:     2.9852   MPKI: 4.87735
L1D RFO       ACCESS:   16855636  HIT:   16719508  MISS:     136128  HIT %:    99.1924  MISS %:   0.807611   MPKI: 0.68064
L1D PREFETCH  ACCESS:     928302  HIT:     920860  MISS:       7442  HIT %:    99.1983  MISS %:   0.801679   MPKI: 0.03721
L1D PREFETCH  REQUESTED:    2319161  ISSUED:    2318983  USEFUL:       6159  USELESS:       1283
L1D USEFUL LOAD PREFETCHES:       6159 PREFETCH ISSUED TO LOWER LEVEL:     192268  ACCURACY: 3.20334
L1D TIMELY PREFETCHES:       6159 LATE PREFETCHES: 17 DROPPED PREFETCHES: 9926
L1D PREFETCHES SAME FILL-ORIGIN LEVEL: 7462 DIFFERENT FILL-ORIGIN LEVEL: 184806
L1D AVERAGE MISS LATENCY: 64.9369 cycles
L1D RQ	ACCESS:   45138707	FORWARD:          0	MERGED:   12196710	TO_CACHE:   32785109
L1D WQ	ACCESS:   17197816	FORWARD:     156943	MERGED:     292339	TO_CACHE:   16905477
L1D PQ	ACCESS:    1181684	FORWARD:          0	MERGED:      44330	TO_CACHE:    1137299

L1D UNIQUE REGIONS ACCESSED: 0
L1D REGIONS CONFLICTS: 0
L1D Cross Page Prefetch Requests: 137629
L1D Same Page Prefetch Requests: 1373120
L1D ROI Sum of L1D PQ occupancy: 16092998
L1D PREFETCHES PUSHED FROM L2C: 0
L1I TOTAL     ACCESS:   35115477  HIT:   35115085  MISS:        392  HIT %:    99.9989  MISS %: 0.00111632   MPKI: 0.00196
L1I LOAD      ACCESS:   35115477  HIT:   35115085  MISS:        392  HIT %:    99.9989  MISS %: 0.00111632   MPKI: 0.00196
L1I PREFETCH  REQUESTED:          0  ISSUED:          0  USEFUL:          0  USELESS:          0
L1I USEFUL LOAD PREFETCHES:          0 PREFETCH ISSUED TO LOWER LEVEL:          0  ACCURACY: -nan
L1I TIMELY PREFETCHES:          0 LATE PREFETCHES: 0 DROPPED PREFETCHES: 0
L1I PREFETCHES SAME FILL-ORIGIN LEVEL: 0 DIFFERENT FILL-ORIGIN LEVEL: 0
L1I AVERAGE MISS LATENCY: 69.7168 cycles
L1I RQ	ACCESS:   51341022	FORWARD:          0	MERGED:   16225306	TO_CACHE:   35115716

BTB TOTAL     ACCESS:   23485692  HIT:   23238860  MISS:     246832  HIT %:     98.949  MISS %:    1.05099   MPKI: 1.23416
BTB BRANCH_DIRECT_JUMP	ACCESS:    2818425  HIT:    2818347  MISS:         78
BTB BRANCH_INDIRECT	ACCESS:     447403  HIT:     208958  MISS:     238445
BTB BRANCH_CONDITIONAL	ACCESS:   19634890  HIT:   19634641  MISS:        249
BTB BRANCH_DIRECT_CALL	ACCESS:     190457  HIT:     190438  MISS:         19
BTB BRANCH_INDIRECT_CALL	ACCESS:     102031  HIT:     102024  MISS:          7
BTB BRANCH_RETURN	ACCESS:     292486  HIT:     284452  MISS:       8034
BTB BRANCH_OTHER ACCESS:          0  HIT:          0  MISS:          0

L2C TOTAL     ACCESS:    2193097  HIT:    1628630  MISS:     564467  HIT %:    74.2616  MISS %:    25.7384   MPKI: 2.82233
L2C LOAD      ACCESS:     975843  HIT:     518883  MISS:     456960  HIT %:    53.1728  MISS %:    46.8272   MPKI: 2.2848
L2C DATA LOAD MPKI: 2.28285
L2C INSTRUCTION LOAD MPKI: 0.001945
L2C RFO       ACCESS:     136125  HIT:      90243  MISS:      45882  HIT %:    66.2942  MISS %:    33.7058   MPKI: 0.22941
L2C PREFETCH  ACCESS:     184646  HIT:     164924  MISS:      19722  HIT %:     89.319  MISS %:     10.681   MPKI: 0.09861
L2C DATA PREFETCH MPKI: 0.09861
L2C INSTRUCTION PREFETCH MPKI: 0
L2C WRITEBACK ACCESS:     758717  HIT:     742924  MISS:      15793  HIT %:    97.9185  MISS %:    2.08154   MPKI: 0.078965
L2C LOAD TRANSLATION ACCESS:     134166  HIT:     108161  MISS:      26005  HIT %:    80.6173  MISS %:    19.3827   MPKI: 0.130025
L2C TRANSLATION FROM L1D PREFETCHER ACCESS:       3600  HIT:       3495  MISS:        105  HIT %:    97.0833  MISS %:    2.91667   MPKI: 0.000525
L2C PREFETCH  REQUESTED:          0  ISSUED:          0  USEFUL:       5056  USELESS:      14544
L2C USEFUL LOAD PREFETCHES:       5056 PREFETCH ISSUED TO LOWER LEVEL:      19790  ACCURACY: 25.5483
L2C TIMELY PREFETCHES:       5056 LATE PREFETCHES: 68 DROPPED PREFETCHES: 0
L2C PREFETCHES SAME FILL-ORIGIN LEVEL: 15352 DIFFERENT FILL-ORIGIN LEVEL: 0
L2C AVERAGE MISS LATENCY: 104.235 cycles
L2C RQ	ACCESS:    1249737	FORWARD:          0	MERGED:          0	TO_CACHE:    1249734
L2C WQ	ACCESS:     758717	FORWARD:          3	MERGED:          0	TO_CACHE:     758717
L2C PQ	ACCESS:     192268	FORWARD:          0	MERGED:         46	TO_CACHE:     192222

L2C Instructions Evicting Data 365
L2C Translations Evicting Data 24793
L2C Data Evicting Data 497459
L2C Instructions Evicting Instructions 7
L2C Translations Evicting Instructions 18
L2C Data Evicting Instructions 349
L2C Instructions Evicting Translations 17
L2C Translations Evicting Translations 1299
L2C Data Evicting Translations 24367
L2C Dense regions hint from L2: 0
PSCL5 TOTAL     ACCESS:     137662  HIT:     137662  MISS:          0  HIT %:        100  MISS %:          0   MPKI: 0
PSCL5 LOAD TRANSLATION ACCESS:     134071  HIT:     134071  MISS:          0  HIT %:        100  MISS %:          0   MPKI: 0
PSCL5 TRANSLATION FROM L1D PREFETCHER ACCESS:       3591  HIT:       3591  MISS:          0  HIT %:        100  MISS %:          0   MPKI: 0
PSCL5 PREFETCH  REQUESTED:          0  ISSUED:          0  USEFUL:          0  USELESS:          0
PSCL5 USEFUL LOAD PREFETCHES:          0 PREFETCH ISSUED TO LOWER LEVEL:          0  ACCURACY: -nan
PSCL5 TIMELY PREFETCHES:          0 LATE PREFETCHES: 0 DROPPED PREFETCHES: 0
PSCL5 PREFETCHES SAME FILL-ORIGIN LEVEL: 0 DIFFERENT FILL-ORIGIN LEVEL: 0

PSCL4 TOTAL     ACCESS:     137662  HIT:     137662  MISS:          0  HIT %:        100  MISS %:          0   MPKI: 0
PSCL4 LOAD TRANSLATION ACCESS:     134071  HIT:     134071  MISS:          0  HIT %:        100  MISS %:          0   MPKI: 0
PSCL4 TRANSLATION FROM L1D PREFETCHER ACCESS:       3591  HIT:       3591  MISS:          0  HIT %:        100  MISS %:          0   MPKI: 0
PSCL4 PREFETCH  REQUESTED:          0  ISSUED:          0  USEFUL:          0  USELESS:          0
PSCL4 USEFUL LOAD PREFETCHES:          0 PREFETCH ISSUED TO LOWER LEVEL:          0  ACCURACY: -nan
PSCL4 TIMELY PREFETCHES:          0 LATE PREFETCHES: 0 DROPPED PREFETCHES: 0
PSCL4 PREFETCHES SAME FILL-ORIGIN LEVEL: 0 DIFFERENT FILL-ORIGIN LEVEL: 0

PSCL3 TOTAL     ACCESS:     137662  HIT:     137662  MISS:          0  HIT %:        100  MISS %:          0   MPKI: 0
PSCL3 LOAD TRANSLATION ACCESS:     134071  HIT:     134071  MISS:          0  HIT %:        100  MISS %:          0   MPKI: 0
PSCL3 TRANSLATION FROM L1D PREFETCHER ACCESS:       3591  HIT:       3591  MISS:          0  HIT %:        100  MISS %:          0   MPKI: 0
PSCL3 PREFETCH  REQUESTED:          0  ISSUED:          0  USEFUL:          0  USELESS:          0
PSCL3 USEFUL LOAD PREFETCHES:          0 PREFETCH ISSUED TO LOWER LEVEL:          0  ACCURACY: -nan
PSCL3 TIMELY PREFETCHES:          0 LATE PREFETCHES: 0 DROPPED PREFETCHES: 0
PSCL3 PREFETCHES SAME FILL-ORIGIN LEVEL: 0 DIFFERENT FILL-ORIGIN LEVEL: 0

PSCL2 TOTAL     ACCESS:     137656  HIT:     137558  MISS:         98  HIT %:    99.9288  MISS %:   0.071192   MPKI: 0.00049
PSCL2 LOAD TRANSLATION ACCESS:     134074  HIT:     133976  MISS:         98  HIT %:    99.9269  MISS %:   0.073094   MPKI: 0.00049
PSCL2 TRANSLATION FROM L1D PREFETCHER ACCESS:       3582  HIT:       3582  MISS:          0  HIT %:        100  MISS %:          0   MPKI: 0
PSCL2 PREFETCH  REQUESTED:          0  ISSUED:          0  USEFUL:          0  USELESS:          0
PSCL2 USEFUL LOAD PREFETCHES:          0 PREFETCH ISSUED TO LOWER LEVEL:          0  ACCURACY: -nan
PSCL2 TIMELY PREFETCHES:          0 LATE PREFETCHES: 0 DROPPED PREFETCHES: 0
PSCL2 PREFETCHES SAME FILL-ORIGIN LEVEL: 0 DIFFERENT FILL-ORIGIN LEVEL: 0

LLC TOTAL     ACCESS:     900322  HIT:     650158  MISS:     250164  HIT %:    72.2139  MISS %:    27.7861   MPKI: 1.25082
LLC LOAD      ACCESS:     456897  HIT:     256352  MISS:     200545  HIT %:    56.1072  MISS %:    43.8928   MPKI: 1.00272
LLC RFO       ACCESS:      45876  HIT:      14220  MISS:      31656  HIT %:    30.9966  MISS %:    69.0034   MPKI: 0.15828
LLC PREFETCH  ACCESS:      19790  HIT:       9248  MISS:      10542  HIT %:    46.7307  MISS %:    53.2693   MPKI: 0.05271
LLC WRITEBACK ACCESS:     351649  HIT:     346193  MISS:       5456  HIT %:    98.4485  MISS %:    1.55155   MPKI: 0.02728
LLC LOAD TRANSLATION ACCESS:      26005  HIT:      24064  MISS:       1941  HIT %:    92.5361  MISS %:    7.46395   MPKI: 0.009705
LLC TRANSLATION FROM L1D PREFETCHER ACCESS:        105  HIT:         81  MISS:         24  HIT %:    77.1429  MISS %:    22.8571   MPKI: 0.00012
LLC PREFETCH  REQUESTED:          0  ISSUED:          0  USEFUL:        997  USELESS:       9152
LLC USEFUL LOAD PREFETCHES:        997 PREFETCH ISSUED TO LOWER LEVEL:      10542  ACCURACY: 9.45741
LLC TIMELY PREFETCHES:        997 LATE PREFETCHES: 0 DROPPED PREFETCHES: 0
LLC PREFETCHES SAME FILL-ORIGIN LEVEL: 0 DIFFERENT FILL-ORIGIN LEVEL: 0
LLC AVERAGE MISS LATENCY: 169.326 cycles
LLC RQ	ACCESS:     528884	FORWARD:          0	MERGED:          0	TO_CACHE:     528883
LLC WQ	ACCESS:     351649	FORWARD:          1	MERGED:          0	TO_CACHE:     351649
LLC PQ	ACCESS:      19790	FORWARD:          0	MERGED:          0	TO_CACHE:      19790

LLC Dense regions hint to LLC: 0

RAW hits: 2187453
Loads Generated: 47326161
Loads sent to L1D: 45138707
Stores Generated: 17197831
Stores sent to L1D: 17197816
Major fault: 0 Minor fault: 8202
Allocated PAGES: 8202

DRAM Statistics
 CHANNEL 0
 RQ ROW_BUFFER_HIT:       3442  ROW_BUFFER_MISS:     241266
 DBUS_CONGESTED:          6
 WQ ROW_BUFFER_HIT:      33107  ROW_BUFFER_MISS:     163051  FULL:          0

 AVG_CONGESTED_CYCLE: 4
 All warmup complete: 2
Channel 0 Bank busy for read cycles: 0
Channel 0 Bank busy for write cycles: 0
Channel 0
Rank 0
0banks busy for read cycles: 265406518
0banks busy for write cycles: 123644
1banks busy for read cycles: 26949710
1banks busy for write cycles: 18975862
2banks busy for read cycles: 3613876
2banks busy for write cycles: 4211564
3banks busy for read cycles: 503935
3banks busy for write cycles: 977464
4banks busy for read cycles: 90553
4banks busy for write cycles: 249558
5banks busy for read cycles: 24582
5banks busy for write cycles: 79361
6banks busy for read cycles: 11964
6banks busy for write cycles: 34218
7banks busy for read cycles: 4734
7banks busy for write cycles: 26531
8banks busy for read cycles: 10388
8banks busy for write cycles: 98460

CPU 0 Branch Prediction Accuracy: 91.7568% MPKI: 8.71897 Average ROB Occupancy at Mispredict: 28.3578
Branch types
NOT_BRANCH: 174994605 87.4973%
BRANCH_DIRECT_JUMP: 2818425 1.40921%
BRANCH_INDIRECT: 447403 0.223701%
BRANCH_CONDITIONAL: 21154324 10.5772%
BRANCH_DIRECT_CALL: 190457 0.0952285%
BRANCH_INDIRECT_CALL: 102031 0.0510155%
BRANCH_RETURN: 292486 0.146243%
BRANCH_OTHER: 0 0%

DRAM PAGES: 1048576
Allocated PAGES: 8202
