526208 bits of metadata so far, 405638 left out of 526336 total budget
table size is 13521 bits, 2253 entries for 5 bit, 1931 entries for 6 bit
526208 total bits (64.23KB)

*** ChampSim Multicore Out-of-Order Simulator ***

Warmup Instructions: 50000000
Simulation Instructions: 200000000
Number of CPUs: 1
LLC sets: 2048
LLC ways: 16
Off-chip DRAM Size: 4096 MB Channels: 1 Width: 64-bit Data Rate: 6400 MT/s
argv[0]: ./ChampSim/Berti/bin/multiperspective_perceptron-no-vberti-no-no-no-no-no-lru-lru-lru-srrip-drrip-lru-lru-lru-1core-no
argv[1]: -warmup_instructions
argv[2]: 50000000
argv[3]: -simulation_instructions
argv[4]: 200000000
argv[5]: -traces
argv[6]: traces/spec2k17_ten/627.cam4_s-573B.champsimtrace.xz
CPU 0 runs traces/spec2k17_ten/627.cam4_s-573B.champsimtrace.xz
.xz
CPU 0 Multiperspective perceptron branch predictor
BTB has LRU replacement policy
ITLB has LRU replacement policy
DTLB has LRU replacement policy
STLB has LRU replacement policy
L1I has LRU replacement policy
History Sets: 8
History Ways: 16
BERTI Size: 16
BERTI Stride Size: 16
L1D has LRU replacement policy
Initialize SRRIP state for L2C
Initialize DRRIP state for LLC
Heartbeat CPU 0 instructions: 10000000 cycles: 3151842 heartbeat IPC: 3.17275 cumulative IPC: 3.17275 (Simulation time: 0 hr 3 min 23 sec) 
Heartbeat CPU 0 instructions: 20000000 cycles: 5966465 heartbeat IPC: 3.55287 cumulative IPC: 3.35207 (Simulation time: 0 hr 8 min 40 sec) 
Heartbeat CPU 0 instructions: 30000002 cycles: 8777619 heartbeat IPC: 3.55726 cumulative IPC: 3.41778 (Simulation time: 0 hr 11 min 17 sec) 
Heartbeat CPU 0 instructions: 40000003 cycles: 11549189 heartbeat IPC: 3.60806 cumulative IPC: 3.46345 (Simulation time: 0 hr 12 min 18 sec) 
Heartbeat CPU 0 instructions: 50000002 cycles: 14376727 heartbeat IPC: 3.53665 cumulative IPC: 3.47784 (Simulation time: 0 hr 14 min 21 sec) 

Warmup complete CPU 0 instructions: 50000002 cycles: 14376727 (Simulation time: 0 hr 14 min 21 sec) 

Heartbeat CPU 0 instructions: 60000002 cycles: 29901977 heartbeat IPC: 0.644112 cumulative IPC: 0.644112 (Simulation time: 0 hr 16 min 32 sec) 
Heartbeat CPU 0 instructions: 70000000 cycles: 44578230 heartbeat IPC: 0.681373 cumulative IPC: 0.662219 (Simulation time: 0 hr 19 min 45 sec) 
Heartbeat CPU 0 instructions: 80000002 cycles: 58873073 heartbeat IPC: 0.699553 cumulative IPC: 0.674213 (Simulation time: 0 hr 24 min 15 sec) 
Heartbeat CPU 0 instructions: 90000003 cycles: 73767796 heartbeat IPC: 0.671379 cumulative IPC: 0.673502 (Simulation time: 0 hr 29 min 22 sec) 
Heartbeat CPU 0 instructions: 100000000 cycles: 89000552 heartbeat IPC: 0.65648 cumulative IPC: 0.670027 (Simulation time: 0 hr 33 min 39 sec) 
Heartbeat CPU 0 instructions: 110000000 cycles: 109775393 heartbeat IPC: 0.481351 cumulative IPC: 0.62894 (Simulation time: 0 hr 43 min 0 sec) 
Heartbeat CPU 0 instructions: 120000002 cycles: 122159349 heartbeat IPC: 0.807497 cumulative IPC: 0.649455 (Simulation time: 0 hr 48 min 17 sec) 
Heartbeat CPU 0 instructions: 130000000 cycles: 133875494 heartbeat IPC: 0.853523 cumulative IPC: 0.669463 (Simulation time: 0 hr 52 min 4 sec) 
Heartbeat CPU 0 instructions: 140000001 cycles: 145514887 heartbeat IPC: 0.859151 cumulative IPC: 0.686299 (Simulation time: 0 hr 55 min 41 sec) 
Heartbeat CPU 0 instructions: 150000002 cycles: 159921292 heartbeat IPC: 0.694136 cumulative IPC: 0.687075 (Simulation time: 0 hr 59 min 27 sec) 
Heartbeat CPU 0 instructions: 160000001 cycles: 175353860 heartbeat IPC: 0.64798 cumulative IPC: 0.683327 (Simulation time: 1 hr 3 min 30 sec) 
Heartbeat CPU 0 instructions: 170000001 cycles: 190447724 heartbeat IPC: 0.662521 cumulative IPC: 0.681543 (Simulation time: 1 hr 8 min 26 sec) 
Heartbeat CPU 0 instructions: 180000000 cycles: 204252043 heartbeat IPC: 0.724411 cumulative IPC: 0.68466 (Simulation time: 1 hr 13 min 44 sec) 
Heartbeat CPU 0 instructions: 190000000 cycles: 219658261 heartbeat IPC: 0.649089 cumulative IPC: 0.68199 (Simulation time: 1 hr 19 min 40 sec) 
Heartbeat CPU 0 instructions: 200000001 cycles: 233891483 heartbeat IPC: 0.702582 cumulative IPC: 0.683325 (Simulation time: 1 hr 24 min 50 sec) 
Heartbeat CPU 0 instructions: 210000000 cycles: 255520541 heartbeat IPC: 0.462341 cumulative IPC: 0.663504 (Simulation time: 1 hr 33 min 5 sec) 
Heartbeat CPU 0 instructions: 220000000 cycles: 268093237 heartbeat IPC: 0.795374 cumulative IPC: 0.670039 (Simulation time: 1 hr 36 min 19 sec) 
Heartbeat CPU 0 instructions: 230000003 cycles: 279917776 heartbeat IPC: 0.845699 cumulative IPC: 0.677861 (Simulation time: 1 hr 38 min 49 sec) 
Heartbeat CPU 0 instructions: 240000002 cycles: 291524895 heartbeat IPC: 0.86154 cumulative IPC: 0.685554 (Simulation time: 1 hr 41 min 22 sec) 
Heartbeat CPU 0 instructions: 250000000 cycles: 304859250 heartbeat IPC: 0.749942 cumulative IPC: 0.68851 (Simulation time: 1 hr 43 min 23 sec) 
Finished CPU 0 instructions: 200000002 cycles: 290482524 cumulative IPC: 0.68851 (Simulation time: 1 hr 43 min 23 sec) 

ChampSim completed all CPUs

Region of Interest Statistics

CPU 0 cumulative IPC: 0.68851 instructions: 200000002 cycles: 290482524
ITLB TOTAL     ACCESS:   30495851  HIT:   30492715  MISS:       3136  HIT %:    99.9897  MISS %:  0.0102834   MPKI: 0.01568
ITLB LOAD TRANSLATION ACCESS:   30495851  HIT:   30492715  MISS:       3136  HIT %:    99.9897  MISS %:  0.0102834   MPKI: 0.01568
ITLB PREFETCH  REQUESTED:          0  ISSUED:          0  USEFUL:          0  USELESS:          0
ITLB USEFUL LOAD PREFETCHES:          0 PREFETCH ISSUED TO LOWER LEVEL:          0  ACCURACY: -nan
ITLB TIMELY PREFETCHES:          0 LATE PREFETCHES: 0 DROPPED PREFETCHES: 0
ITLB PREFETCHES SAME FILL-ORIGIN LEVEL: 0 DIFFERENT FILL-ORIGIN LEVEL: 0
ITLB AVERAGE MISS LATENCY: 35.9499 cycles
ITLB RQ	ACCESS:   36696793	FORWARD:          0	MERGED:    6200017	TO_CACHE:   30496776

DTLB TOTAL     ACCESS:   34583336  HIT:   34450174  MISS:     133162  HIT %:     99.615  MISS %:   0.385047   MPKI: 0.66581
DTLB LOAD TRANSLATION ACCESS:   34583336  HIT:   34450174  MISS:     133162  HIT %:     99.615  MISS %:   0.385047   MPKI: 0.66581
DTLB PREFETCH  REQUESTED:          0  ISSUED:          0  USEFUL:          0  USELESS:          0
DTLB USEFUL LOAD PREFETCHES:          0 PREFETCH ISSUED TO LOWER LEVEL:          0  ACCURACY: -nan
DTLB TIMELY PREFETCHES:          0 LATE PREFETCHES: 0 DROPPED PREFETCHES: 0
DTLB PREFETCHES SAME FILL-ORIGIN LEVEL: 0 DIFFERENT FILL-ORIGIN LEVEL: 0
DTLB AVERAGE MISS LATENCY: 28.4134 cycles
DTLB RQ	ACCESS:   44186643	FORWARD:          0	MERGED:    9424003	TO_CACHE:   34762640

STLB TOTAL     ACCESS:    2882821  HIT:    2863284  MISS:      19537  HIT %:    99.3223  MISS %:   0.677704   MPKI: 0.097685
STLB LOAD TRANSLATION ACCESS:     136298  HIT:     117480  MISS:      18818  HIT %:    86.1935  MISS %:    13.8065   MPKI: 0.09409
STLB TRANSLATION FROM L1D PREFETCHER ACCESS:    2746523  HIT:    2745804  MISS:        719  HIT %:    99.9738  MISS %:  0.0261786   MPKI: 0.003595
STLB PREFETCH  REQUESTED:          0  ISSUED:          0  USEFUL:        687  USELESS:         26
STLB USEFUL LOAD PREFETCHES:        687 PREFETCH ISSUED TO LOWER LEVEL:          0  ACCURACY: inf
STLB TIMELY PREFETCHES:        687 LATE PREFETCHES: 34 DROPPED PREFETCHES: 8375
STLB PREFETCHES SAME FILL-ORIGIN LEVEL: 0 DIFFERENT FILL-ORIGIN LEVEL: 0
STLB AVERAGE MISS LATENCY: 139.24 cycles
STLB RQ	ACCESS:    9732449	FORWARD:          0	MERGED:    6840720	TO_CACHE:    2891729

STLB Hit, L1D data hit: 0
STLB Hit, L2C data hit: 0
STLB Hit, LLC data hit: 0
STLB Hit, LLC data miss: 0
STLB STLB hints to L2: 0
L1D TOTAL     ACCESS:   48888691  HIT:   47007755  MISS:    1880936  HIT %:    96.1526  MISS %:    3.84738   MPKI: 9.40468
L1D LOAD      ACCESS:   24020417  HIT:   23724349  MISS:     296068  HIT %:    98.7674  MISS %:    1.23257   MPKI: 1.48034
L1D RFO       ACCESS:   16834717  HIT:   15611369  MISS:    1223348  HIT %:    92.7332  MISS %:    7.26682   MPKI: 6.11674
L1D PREFETCH  ACCESS:    8033557  HIT:    7672037  MISS:     361520  HIT %:    95.4999  MISS %:    4.50012   MPKI: 1.8076
L1D PREFETCH  REQUESTED:   22362265  ISSUED:   20838601  USEFUL:     327090  USELESS:      34438
L1D USEFUL LOAD PREFETCHES:     327090 PREFETCH ISSUED TO LOWER LEVEL:    1885716  ACCURACY: 17.3457
L1D TIMELY PREFETCHES:     327090 LATE PREFETCHES: 2984 DROPPED PREFETCHES: 13892
L1D PREFETCHES SAME FILL-ORIGIN LEVEL: 364512 DIFFERENT FILL-ORIGIN LEVEL: 1521204
L1D AVERAGE MISS LATENCY: 236.292 cycles
L1D RQ	ACCESS:   32886051	FORWARD:          0	MERGED:    8465530	TO_CACHE:   24057750
L1D WQ	ACCESS:   20828088	FORWARD:     362885	MERGED:     699195	TO_CACHE:   20128893
L1D PQ	ACCESS:   11242450	FORWARD:          0	MERGED:    1646185	TO_CACHE:    9596151

L1D UNIQUE REGIONS ACCESSED: 0
L1D REGIONS CONFLICTS: 0
L1D Cross Page Prefetch Requests: 3999561
L1D Same Page Prefetch Requests: 8280322
L1D ROI Sum of L1D PQ occupancy: 144802940
L1D PREFETCHES PUSHED FROM L2C: 0
L1I TOTAL     ACCESS:   36662928  HIT:   36580714  MISS:      82214  HIT %:    99.7758  MISS %:   0.224243   MPKI: 0.41107
L1I LOAD      ACCESS:   36662928  HIT:   36580714  MISS:      82214  HIT %:    99.7758  MISS %:   0.224243   MPKI: 0.41107
L1I PREFETCH  REQUESTED:          0  ISSUED:          0  USEFUL:          0  USELESS:          0
L1I USEFUL LOAD PREFETCHES:          0 PREFETCH ISSUED TO LOWER LEVEL:          0  ACCURACY: -nan
L1I TIMELY PREFETCHES:          0 LATE PREFETCHES: 0 DROPPED PREFETCHES: 0
L1I PREFETCHES SAME FILL-ORIGIN LEVEL: 0 DIFFERENT FILL-ORIGIN LEVEL: 0
L1I AVERAGE MISS LATENCY: 63.3534 cycles
L1I RQ	ACCESS:   55696191	FORWARD:          0	MERGED:   18999398	TO_CACHE:   36696793

BTB TOTAL     ACCESS:   20164737  HIT:   19783135  MISS:     381602  HIT %:    98.1076  MISS %:    1.89242   MPKI: 1.90801
BTB BRANCH_DIRECT_JUMP	ACCESS:    1577847  HIT:    1576582  MISS:       1265
BTB BRANCH_INDIRECT	ACCESS:      10107  HIT:       9279  MISS:        828
BTB BRANCH_CONDITIONAL	ACCESS:   16385851  HIT:   16377196  MISS:       8655
BTB BRANCH_DIRECT_CALL	ACCESS:    1095466  HIT:    1089615  MISS:       5851
BTB BRANCH_INDIRECT_CALL	ACCESS:          0  HIT:          0  MISS:          0
BTB BRANCH_RETURN	ACCESS:    1095466  HIT:     730463  MISS:     365003
BTB BRANCH_OTHER ACCESS:          0  HIT:          0  MISS:          0

L2C TOTAL     ACCESS:    4780778  HIT:    3623308  MISS:    1157470  HIT %:    75.7891  MISS %:    24.2109   MPKI: 5.78735
L2C LOAD      ACCESS:     375258  HIT:     289892  MISS:      85366  HIT %:    77.2514  MISS %:    22.7486   MPKI: 0.42683
L2C DATA LOAD MPKI: 0.30649
L2C INSTRUCTION LOAD MPKI: 0.12034
L2C RFO       ACCESS:    1223326  HIT:     252183  MISS:     971143  HIT %:    20.6145  MISS %:    79.3855   MPKI: 4.85571
L2C PREFETCH  ACCESS:    1848187  HIT:    1769864  MISS:      78323  HIT %:    95.7622  MISS %:    4.23783   MPKI: 0.391615
L2C DATA PREFETCH MPKI: 0.391615
L2C INSTRUCTION PREFETCH MPKI: 0
L2C WRITEBACK ACCESS:    1305436  HIT:    1286828  MISS:      18608  HIT %:    98.5746  MISS %:    1.42542   MPKI: 0.09304
L2C LOAD TRANSLATION ACCESS:      19053  HIT:      15479  MISS:       3574  HIT %:    81.2418  MISS %:    18.7582   MPKI: 0.01787
L2C TRANSLATION FROM L1D PREFETCHER ACCESS:       9518  HIT:       9062  MISS:        456  HIT %:    95.2091  MISS %:    4.79092   MPKI: 0.00228
L2C PREFETCH  REQUESTED:          0  ISSUED:          0  USEFUL:      28259  USELESS:      54079
L2C USEFUL LOAD PREFETCHES:      28259 PREFETCH ISSUED TO LOWER LEVEL:      83836  ACCURACY: 33.7075
L2C TIMELY PREFETCHES:      28259 LATE PREFETCHES: 5513 DROPPED PREFETCHES: 0
L2C PREFETCHES SAME FILL-ORIGIN LEVEL: 63636 DIFFERENT FILL-ORIGIN LEVEL: 0
L2C AVERAGE MISS LATENCY: 370.212 cycles
L2C RQ	ACCESS:    1627209	FORWARD:          0	MERGED:          0	TO_CACHE:    1627155
L2C WQ	ACCESS:    1305436	FORWARD:         68	MERGED:          0	TO_CACHE:    1305436
L2C PQ	ACCESS:    1882682	FORWARD:          0	MERGED:        485	TO_CACHE:    1882183

L2C Instructions Evicting Data 20793
L2C Translations Evicting Data 3736
L2C Data Evicting Data 1086611
L2C Instructions Evicting Instructions 3087
L2C Translations Evicting Instructions 284
L2C Data Evicting Instructions 20396
L2C Instructions Evicting Translations 188
L2C Translations Evicting Translations 10
L2C Data Evicting Translations 3757
L2C Dense regions hint from L2: 0
PSCL5 TOTAL     ACCESS:      27915  HIT:      27915  MISS:          0  HIT %:        100  MISS %:          0   MPKI: 0
PSCL5 LOAD TRANSLATION ACCESS:      18787  HIT:      18787  MISS:          0  HIT %:        100  MISS %:          0   MPKI: 0
PSCL5 TRANSLATION FROM L1D PREFETCHER ACCESS:       9128  HIT:       9128  MISS:          0  HIT %:        100  MISS %:          0   MPKI: 0
PSCL5 PREFETCH  REQUESTED:          0  ISSUED:          0  USEFUL:          0  USELESS:          0
PSCL5 USEFUL LOAD PREFETCHES:          0 PREFETCH ISSUED TO LOWER LEVEL:          0  ACCURACY: -nan
PSCL5 TIMELY PREFETCHES:          0 LATE PREFETCHES: 0 DROPPED PREFETCHES: 0
PSCL5 PREFETCHES SAME FILL-ORIGIN LEVEL: 0 DIFFERENT FILL-ORIGIN LEVEL: 0

PSCL4 TOTAL     ACCESS:      27915  HIT:      27915  MISS:          0  HIT %:        100  MISS %:          0   MPKI: 0
PSCL4 LOAD TRANSLATION ACCESS:      18787  HIT:      18787  MISS:          0  HIT %:        100  MISS %:          0   MPKI: 0
PSCL4 TRANSLATION FROM L1D PREFETCHER ACCESS:       9128  HIT:       9128  MISS:          0  HIT %:        100  MISS %:          0   MPKI: 0
PSCL4 PREFETCH  REQUESTED:          0  ISSUED:          0  USEFUL:          0  USELESS:          0
PSCL4 USEFUL LOAD PREFETCHES:          0 PREFETCH ISSUED TO LOWER LEVEL:          0  ACCURACY: -nan
PSCL4 TIMELY PREFETCHES:          0 LATE PREFETCHES: 0 DROPPED PREFETCHES: 0
PSCL4 PREFETCHES SAME FILL-ORIGIN LEVEL: 0 DIFFERENT FILL-ORIGIN LEVEL: 0

PSCL3 TOTAL     ACCESS:      27915  HIT:      27915  MISS:          0  HIT %:        100  MISS %:          0   MPKI: 0
PSCL3 LOAD TRANSLATION ACCESS:      18787  HIT:      18787  MISS:          0  HIT %:        100  MISS %:          0   MPKI: 0
PSCL3 TRANSLATION FROM L1D PREFETCHER ACCESS:       9128  HIT:       9128  MISS:          0  HIT %:        100  MISS %:          0   MPKI: 0
PSCL3 PREFETCH  REQUESTED:          0  ISSUED:          0  USEFUL:          0  USELESS:          0
PSCL3 USEFUL LOAD PREFETCHES:          0 PREFETCH ISSUED TO LOWER LEVEL:          0  ACCURACY: -nan
PSCL3 TIMELY PREFETCHES:          0 LATE PREFETCHES: 0 DROPPED PREFETCHES: 0
PSCL3 PREFETCHES SAME FILL-ORIGIN LEVEL: 0 DIFFERENT FILL-ORIGIN LEVEL: 0

PSCL2 TOTAL     ACCESS:      27528  HIT:      27152  MISS:        376  HIT %:    98.6341  MISS %:    1.36588   MPKI: 0.00188
PSCL2 LOAD TRANSLATION ACCESS:      18790  HIT:      18414  MISS:        376  HIT %:    97.9989  MISS %:    2.00106   MPKI: 0.00188
PSCL2 TRANSLATION FROM L1D PREFETCHER ACCESS:       8738  HIT:       8738  MISS:          0  HIT %:        100  MISS %:          0   MPKI: 0
PSCL2 PREFETCH  REQUESTED:          0  ISSUED:          0  USEFUL:          0  USELESS:          0
PSCL2 USEFUL LOAD PREFETCHES:          0 PREFETCH ISSUED TO LOWER LEVEL:          0  ACCURACY: -nan
PSCL2 TIMELY PREFETCHES:          0 LATE PREFETCHES: 0 DROPPED PREFETCHES: 0
PSCL2 PREFETCHES SAME FILL-ORIGIN LEVEL: 0 DIFFERENT FILL-ORIGIN LEVEL: 0

LLC TOTAL     ACCESS:    2126183  HIT:    1057229  MISS:    1068954  HIT %:    49.7243  MISS %:    50.2757   MPKI: 5.34477
LLC LOAD      ACCESS:      79885  HIT:      18185  MISS:      61700  HIT %:     22.764  MISS %:     77.236   MPKI: 0.3085
LLC RFO       ACCESS:     971111  HIT:      18923  MISS:     952188  HIT %:    1.94859  MISS %:    98.0514   MPKI: 4.76094
LLC PREFETCH  ACCESS:      83836  HIT:      55153  MISS:      28683  HIT %:    65.7868  MISS %:    34.2132   MPKI: 0.143415
LLC WRITEBACK ACCESS:     987321  HIT:     964576  MISS:      22745  HIT %:    97.6963  MISS %:    2.30371   MPKI: 0.113725
LLC LOAD TRANSLATION ACCESS:       3574  HIT:        311  MISS:       3263  HIT %:    8.70173  MISS %:    91.2983   MPKI: 0.016315
LLC TRANSLATION FROM L1D PREFETCHER ACCESS:        456  HIT:         81  MISS:        375  HIT %:    17.7632  MISS %:    82.2368   MPKI: 0.001875
LLC PREFETCH  REQUESTED:          0  ISSUED:          0  USEFUL:       1838  USELESS:      30491
LLC USEFUL LOAD PREFETCHES:       1838 PREFETCH ISSUED TO LOWER LEVEL:      28683  ACCURACY: 6.40798
LLC TIMELY PREFETCHES:       1838 LATE PREFETCHES: 0 DROPPED PREFETCHES: 0
LLC PREFETCHES SAME FILL-ORIGIN LEVEL: 0 DIFFERENT FILL-ORIGIN LEVEL: 0
LLC AVERAGE MISS LATENCY: 368.559 cycles
LLC RQ	ACCESS:    1055026	FORWARD:          0	MERGED:          0	TO_CACHE:    1055026
LLC WQ	ACCESS:     987321	FORWARD:          0	MERGED:          0	TO_CACHE:     987321
LLC PQ	ACCESS:      83836	FORWARD:          0	MERGED:          0	TO_CACHE:      83836

LLC Dense regions hint to LLC: 0

RAW hits: 2898368
Loads Generated: 35784419
Loads sent to L1D: 32886051
Stores Generated: 20828086
Stores sent to L1D: 20828088
Major fault: 0 Minor fault: 6978
Allocated PAGES: 6978

DRAM Statistics
 CHANNEL 0
 RQ ROW_BUFFER_HIT:     472714  ROW_BUFFER_MISS:     573493
 DBUS_CONGESTED:        220
 WQ ROW_BUFFER_HIT:     387789  ROW_BUFFER_MISS:     575424  FULL:       3100

 AVG_CONGESTED_CYCLE: 5
 All warmup complete: 2
Channel 0 Bank busy for read cycles: 0
Channel 0 Bank busy for write cycles: 0
Channel 0
Rank 0
0banks busy for read cycles: 247789465
0banks busy for write cycles: 12333
1banks busy for read cycles: 5493483
1banks busy for write cycles: 1699133
2banks busy for read cycles: 3492652
2banks busy for write cycles: 752418
3banks busy for read cycles: 1229145
3banks busy for write cycles: 486143
4banks busy for read cycles: 714069
4banks busy for write cycles: 376221
5banks busy for read cycles: 412117
5banks busy for write cycles: 322399
6banks busy for read cycles: 364742
6banks busy for write cycles: 306926
7banks busy for read cycles: 863936
7banks busy for write cycles: 1255000
8banks busy for read cycles: 10153987
8banks busy for write cycles: 14758356

CPU 0 Branch Prediction Accuracy: 99.4316% MPKI: 0.651265 Average ROB Occupancy at Mispredict: 50.29
Branch types
NOT_BRANCH: 173303799 86.6519%
BRANCH_DIRECT_JUMP: 1577847 0.788923%
BRANCH_INDIRECT: 10107 0.0050535%
BRANCH_CONDITIONAL: 22916974 11.4585%
BRANCH_DIRECT_CALL: 1095466 0.547733%
BRANCH_INDIRECT_CALL: 0 0%
BRANCH_RETURN: 1095466 0.547733%
BRANCH_OTHER: 0 0%

DRAM PAGES: 1048576
Allocated PAGES: 6978
