526208 bits of metadata so far, 405638 left out of 526336 total budget
table size is 13521 bits, 2253 entries for 5 bit, 1931 entries for 6 bit
526208 total bits (64.23KB)

*** ChampSim Multicore Out-of-Order Simulator ***

Warmup Instructions: 50000000
Simulation Instructions: 200000000
Number of CPUs: 1
LLC sets: 2048
LLC ways: 16
Off-chip DRAM Size: 4096 MB Channels: 1 Width: 64-bit Data Rate: 6400 MT/s
argv[0]: ./ChampSim/Berti/bin/multiperspective_perceptron-no-vberti-no-no-no-no-no-lru-lru-lru-srrip-drrip-lru-lru-lru-1core-no
argv[1]: -warmup_instructions
argv[2]: 50000000
argv[3]: -simulation_instructions
argv[4]: 200000000
argv[5]: -traces
argv[6]: traces/spec2k17_ten/623.xalancbmk_s-165B.champsimtrace.xz
CPU 0 runs traces/spec2k17_ten/623.xalancbmk_s-165B.champsimtrace.xz
.xz
CPU 0 Multiperspective perceptron branch predictor
BTB has LRU replacement policy
ITLB has LRU replacement policy
DTLB has LRU replacement policy
STLB has LRU replacement policy
L1I has LRU replacement policy
History Sets: 8
History Ways: 16
BERTI Size: 16
BERTI Stride Size: 16
L1D has LRU replacement policy
Initialize SRRIP state for L2C
Initialize DRRIP state for LLC
Heartbeat CPU 0 instructions: 10000000 cycles: 2854139 heartbeat IPC: 3.50368 cumulative IPC: 3.50368 (Simulation time: 0 hr 9 min 57 sec) 
Heartbeat CPU 0 instructions: 20000001 cycles: 5702135 heartbeat IPC: 3.51124 cumulative IPC: 3.50746 (Simulation time: 0 hr 17 min 30 sec) 
Heartbeat CPU 0 instructions: 30000002 cycles: 8541590 heartbeat IPC: 3.5218 cumulative IPC: 3.51223 (Simulation time: 0 hr 24 min 18 sec) 
Heartbeat CPU 0 instructions: 40000003 cycles: 11388807 heartbeat IPC: 3.5122 cumulative IPC: 3.51222 (Simulation time: 0 hr 31 min 16 sec) 
Heartbeat CPU 0 instructions: 50000001 cycles: 14231534 heartbeat IPC: 3.51775 cumulative IPC: 3.51332 (Simulation time: 0 hr 37 min 0 sec) 

Warmup complete CPU 0 instructions: 50000001 cycles: 14231534 (Simulation time: 0 hr 37 min 0 sec) 

Heartbeat CPU 0 instructions: 60000003 cycles: 25657267 heartbeat IPC: 0.875218 cumulative IPC: 0.875218 (Simulation time: 0 hr 41 min 44 sec) 
Heartbeat CPU 0 instructions: 70000001 cycles: 37083041 heartbeat IPC: 0.875214 cumulative IPC: 0.875216 (Simulation time: 0 hr 45 min 56 sec) 
Heartbeat CPU 0 instructions: 80000001 cycles: 48508387 heartbeat IPC: 0.875247 cumulative IPC: 0.875226 (Simulation time: 0 hr 50 min 4 sec) 
Heartbeat CPU 0 instructions: 90000001 cycles: 59933985 heartbeat IPC: 0.875228 cumulative IPC: 0.875227 (Simulation time: 0 hr 55 min 30 sec) 
Heartbeat CPU 0 instructions: 100000001 cycles: 71355651 heartbeat IPC: 0.875529 cumulative IPC: 0.875287 (Simulation time: 1 hr 1 min 56 sec) 
Heartbeat CPU 0 instructions: 110000000 cycles: 82784186 heartbeat IPC: 0.875003 cumulative IPC: 0.87524 (Simulation time: 1 hr 8 min 0 sec) 
Heartbeat CPU 0 instructions: 120000000 cycles: 94204416 heartbeat IPC: 0.875639 cumulative IPC: 0.875297 (Simulation time: 1 hr 12 min 50 sec) 
Heartbeat CPU 0 instructions: 130000002 cycles: 105628743 heartbeat IPC: 0.875325 cumulative IPC: 0.8753 (Simulation time: 1 hr 19 min 31 sec) 
Heartbeat CPU 0 instructions: 140000002 cycles: 117050947 heartbeat IPC: 0.875488 cumulative IPC: 0.875321 (Simulation time: 1 hr 25 min 39 sec) 
Heartbeat CPU 0 instructions: 150000002 cycles: 128474570 heartbeat IPC: 0.875379 cumulative IPC: 0.875327 (Simulation time: 1 hr 30 min 38 sec) 
Heartbeat CPU 0 instructions: 160000000 cycles: 139896883 heartbeat IPC: 0.875479 cumulative IPC: 0.875341 (Simulation time: 1 hr 35 min 3 sec) 
Heartbeat CPU 0 instructions: 170000000 cycles: 151322221 heartbeat IPC: 0.875248 cumulative IPC: 0.875333 (Simulation time: 1 hr 38 min 20 sec) 
Heartbeat CPU 0 instructions: 180000002 cycles: 162746521 heartbeat IPC: 0.875327 cumulative IPC: 0.875333 (Simulation time: 1 hr 41 min 55 sec) 
Heartbeat CPU 0 instructions: 190000002 cycles: 174169519 heartbeat IPC: 0.875427 cumulative IPC: 0.875339 (Simulation time: 1 hr 44 min 22 sec) 
Heartbeat CPU 0 instructions: 200000002 cycles: 185592192 heartbeat IPC: 0.875452 cumulative IPC: 0.875347 (Simulation time: 1 hr 47 min 2 sec) 
Heartbeat CPU 0 instructions: 210000003 cycles: 197015540 heartbeat IPC: 0.8754 cumulative IPC: 0.87535 (Simulation time: 1 hr 49 min 4 sec) 
Heartbeat CPU 0 instructions: 220000000 cycles: 208777730 heartbeat IPC: 0.850182 cumulative IPC: 0.873828 (Simulation time: 1 hr 50 min 45 sec) 
Heartbeat CPU 0 instructions: 230000001 cycles: 220126071 heartbeat IPC: 0.881186 cumulative IPC: 0.874234 (Simulation time: 1 hr 52 min 20 sec) 
Heartbeat CPU 0 instructions: 240000002 cycles: 231230833 heartbeat IPC: 0.900515 cumulative IPC: 0.875579 (Simulation time: 1 hr 53 min 37 sec) 
Heartbeat CPU 0 instructions: 250000002 cycles: 242249911 heartbeat IPC: 0.907517 cumulative IPC: 0.877122 (Simulation time: 1 hr 54 min 46 sec) 
Finished CPU 0 instructions: 200000001 cycles: 228018377 cumulative IPC: 0.877122 (Simulation time: 1 hr 54 min 46 sec) 

ChampSim completed all CPUs

Region of Interest Statistics

CPU 0 cumulative IPC: 0.877122 instructions: 200000001 cycles: 228018377
ITLB TOTAL     ACCESS:   28387798  HIT:   28387787  MISS:         11  HIT %:        100  MISS %: 3.8749e-05   MPKI: 5.5e-05
ITLB LOAD TRANSLATION ACCESS:   28387798  HIT:   28387787  MISS:         11  HIT %:        100  MISS %: 3.8749e-05   MPKI: 5.5e-05
ITLB PREFETCH  REQUESTED:          0  ISSUED:          0  USEFUL:          0  USELESS:          0
ITLB USEFUL LOAD PREFETCHES:          0 PREFETCH ISSUED TO LOWER LEVEL:          0  ACCURACY: -nan
ITLB TIMELY PREFETCHES:          0 LATE PREFETCHES: 0 DROPPED PREFETCHES: 0
ITLB PREFETCHES SAME FILL-ORIGIN LEVEL: 0 DIFFERENT FILL-ORIGIN LEVEL: 0
ITLB AVERAGE MISS LATENCY: 256 cycles
ITLB RQ	ACCESS:   37102380	FORWARD:          0	MERGED:    8714582	TO_CACHE:   28387798

DTLB TOTAL     ACCESS:   31231539  HIT:   31165691  MISS:      65848  HIT %:    99.7892  MISS %:   0.210838   MPKI: 0.32924
DTLB LOAD TRANSLATION ACCESS:   31231539  HIT:   31165691  MISS:      65848  HIT %:    99.7892  MISS %:   0.210838   MPKI: 0.32924
DTLB PREFETCH  REQUESTED:          0  ISSUED:          0  USEFUL:          0  USELESS:          0
DTLB USEFUL LOAD PREFETCHES:          0 PREFETCH ISSUED TO LOWER LEVEL:          0  ACCURACY: -nan
DTLB TIMELY PREFETCHES:          0 LATE PREFETCHES: 0 DROPPED PREFETCHES: 0
DTLB PREFETCHES SAME FILL-ORIGIN LEVEL: 0 DIFFERENT FILL-ORIGIN LEVEL: 0
DTLB AVERAGE MISS LATENCY: 8.18748 cycles
DTLB RQ	ACCESS:   34037711	FORWARD:          0	MERGED:    2805903	TO_CACHE:   31231808

STLB TOTAL     ACCESS:    7910585  HIT:    7909838  MISS:        747  HIT %:    99.9906  MISS %: 0.00944304   MPKI: 0.003735
STLB LOAD TRANSLATION ACCESS:      65859  HIT:      65112  MISS:        747  HIT %:    98.8658  MISS %:    1.13424   MPKI: 0.003735
STLB TRANSLATION FROM L1D PREFETCHER ACCESS:    7844726  HIT:    7844726  MISS:          0  HIT %:        100  MISS %:          0   MPKI: 0
STLB PREFETCH  REQUESTED:          0  ISSUED:          0  USEFUL:          0  USELESS:          0
STLB USEFUL LOAD PREFETCHES:          0 PREFETCH ISSUED TO LOWER LEVEL:          0  ACCURACY: -nan
STLB TIMELY PREFETCHES:          0 LATE PREFETCHES: 14 DROPPED PREFETCHES: 15568
STLB PREFETCHES SAME FILL-ORIGIN LEVEL: 0 DIFFERENT FILL-ORIGIN LEVEL: 0
STLB AVERAGE MISS LATENCY: 203.679 cycles
STLB RQ	ACCESS:   30985799	FORWARD:          0	MERGED:   23056376	TO_CACHE:    7929423

STLB Hit, L1D data hit: 0
STLB Hit, L2C data hit: 0
STLB Hit, LLC data hit: 0
STLB Hit, LLC data miss: 0
STLB STLB hints to L2: 0
L1D TOTAL     ACCESS:   62003950  HIT:   57747433  MISS:    4256517  HIT %:    93.1351  MISS %:    6.86491   MPKI: 21.2826
L1D LOAD      ACCESS:   31068236  HIT:   30934255  MISS:     133981  HIT %:    99.5688  MISS %:   0.431248   MPKI: 0.669905
L1D RFO       ACCESS:    2954893  HIT:    2951734  MISS:       3159  HIT %:    99.8931  MISS %:   0.106907   MPKI: 0.015795
L1D PREFETCH  ACCESS:   27980821  HIT:   23861444  MISS:    4119377  HIT %:    85.2779  MISS %:    14.7221   MPKI: 20.5969
L1D PREFETCH  REQUESTED:   81413446  ISSUED:   65588889  USEFUL:    3852579  USELESS:     266792
L1D USEFUL LOAD PREFETCHES:    3852579 PREFETCH ISSUED TO LOWER LEVEL:    6961344  ACCURACY: 55.3425
L1D TIMELY PREFETCHES:    3852579 LATE PREFETCHES: 7 DROPPED PREFETCHES: 33708
L1D PREFETCHES SAME FILL-ORIGIN LEVEL: 4119414 DIFFERENT FILL-ORIGIN LEVEL: 2841930
L1D AVERAGE MISS LATENCY: 40.7405 cycles
L1D RQ	ACCESS:   58954065	FORWARD:          0	MERGED:   27845693	TO_CACHE:   31075160
L1D WQ	ACCESS:    2967095	FORWARD:      33212	MERGED:       4544	TO_CACHE:    2962551
L1D PQ	ACCESS:   34668949	FORWARD:          0	MERGED:    3749009	TO_CACHE:   30919940

L1D UNIQUE REGIONS ACCESSED: 0
L1D REGIONS CONFLICTS: 0
L1D Cross Page Prefetch Requests: 25311527
L1D Same Page Prefetch Requests: 22970615
L1D ROI Sum of L1D PQ occupancy: 472792810
L1D PREFETCHES PUSHED FROM L2C: 0
L1I TOTAL     ACCESS:   37102370  HIT:   37102278  MISS:         92  HIT %:    99.9998  MISS %: 0.000247963   MPKI: 0.00046
L1I LOAD      ACCESS:   37102370  HIT:   37102278  MISS:         92  HIT %:    99.9998  MISS %: 0.000247963   MPKI: 0.00046
L1I PREFETCH  REQUESTED:          0  ISSUED:          0  USEFUL:          0  USELESS:          0
L1I USEFUL LOAD PREFETCHES:          0 PREFETCH ISSUED TO LOWER LEVEL:          0  ACCURACY: -nan
L1I TIMELY PREFETCHES:          0 LATE PREFETCHES: 0 DROPPED PREFETCHES: 0
L1I PREFETCHES SAME FILL-ORIGIN LEVEL: 0 DIFFERENT FILL-ORIGIN LEVEL: 0
L1I AVERAGE MISS LATENCY: 177.228 cycles
L1I RQ	ACCESS:   73447302	FORWARD:          0	MERGED:   36344922	TO_CACHE:   37102380

BTB TOTAL     ACCESS:   32869650  HIT:   32861233  MISS:       8417  HIT %:    99.9744  MISS %:  0.0256072   MPKI: 0.042085
BTB BRANCH_DIRECT_JUMP	ACCESS:      10018  HIT:       9991  MISS:         27
BTB BRANCH_INDIRECT	ACCESS:          0  HIT:          0  MISS:          0
BTB BRANCH_CONDITIONAL	ACCESS:   30064978  HIT:   30064867  MISS:        111
BTB BRANCH_DIRECT_CALL	ACCESS:     706558  HIT:     706534  MISS:         24
BTB BRANCH_INDIRECT_CALL	ACCESS:     690770  HIT:     690753  MISS:         17
BTB BRANCH_RETURN	ACCESS:    1397326  HIT:    1389088  MISS:       8238
BTB BRANCH_OTHER ACCESS:          0  HIT:          0  MISS:          0

L2C TOTAL     ACCESS:    7113174  HIT:    3621640  MISS:    3491534  HIT %:    50.9145  MISS %:    49.0855   MPKI: 17.4577
L2C LOAD      ACCESS:     134066  HIT:     111872  MISS:      22194  HIT %:    83.4455  MISS %:    16.5545   MPKI: 0.11097
L2C DATA LOAD MPKI: 0.11051
L2C INSTRUCTION LOAD MPKI: 0.00046
L2C RFO       ACCESS:       3132  HIT:       2384  MISS:        748  HIT %:    76.1175  MISS %:    23.8825   MPKI: 0.00374
L2C PREFETCH  ACCESS:    6950989  HIT:    3483135  MISS:    3467854  HIT %:    50.1099  MISS %:    49.8901   MPKI: 17.3393
L2C DATA PREFETCH MPKI: 17.3393
L2C INSTRUCTION PREFETCH MPKI: 0
L2C WRITEBACK ACCESS:       8658  HIT:       8652  MISS:          6  HIT %:    99.9307  MISS %:  0.0693001   MPKI: 3e-05
L2C LOAD TRANSLATION ACCESS:        747  HIT:        479  MISS:        268  HIT %:    64.1232  MISS %:    35.8768   MPKI: 0.00134
L2C TRANSLATION FROM L1D PREFETCHER ACCESS:      15582  HIT:      15118  MISS:        464  HIT %:    97.0222  MISS %:    2.97779   MPKI: 0.00232
L2C PREFETCH  REQUESTED:          0  ISSUED:          0  USEFUL:      68548  USELESS:    3403084
L2C USEFUL LOAD PREFETCHES:      68548 PREFETCH ISSUED TO LOWER LEVEL:    3467889  ACCURACY: 1.97665
L2C TIMELY PREFETCHES:      68548 LATE PREFETCHES: 36 DROPPED PREFETCHES: 0
L2C PREFETCHES SAME FILL-ORIGIN LEVEL: 1300426 DIFFERENT FILL-ORIGIN LEVEL: 0
L2C AVERAGE MISS LATENCY: 49.0586 cycles
L2C RQ	ACCESS:     153527	FORWARD:          0	MERGED:          0	TO_CACHE:     153527
L2C WQ	ACCESS:       8658	FORWARD:          1	MERGED:          0	TO_CACHE:       8658
L2C PQ	ACCESS:    6961344	FORWARD:          0	MERGED:        130	TO_CACHE:    6961213

L2C Instructions Evicting Data 92
L2C Translations Evicting Data 732
L2C Data Evicting Data 3490011
L2C Instructions Evicting Instructions 0
L2C Translations Evicting Instructions 0
L2C Data Evicting Instructions 77
L2C Instructions Evicting Translations 0
L2C Translations Evicting Translations 0
L2C Data Evicting Translations 616
L2C Dense regions hint from L2: 0
PSCL5 TOTAL     ACCESS:      16329  HIT:      16329  MISS:          0  HIT %:        100  MISS %:          0   MPKI: 0
PSCL5 LOAD TRANSLATION ACCESS:        747  HIT:        747  MISS:          0  HIT %:        100  MISS %:          0   MPKI: 0
PSCL5 TRANSLATION FROM L1D PREFETCHER ACCESS:      15582  HIT:      15582  MISS:          0  HIT %:        100  MISS %:          0   MPKI: 0
PSCL5 PREFETCH  REQUESTED:          0  ISSUED:          0  USEFUL:          0  USELESS:          0
PSCL5 USEFUL LOAD PREFETCHES:          0 PREFETCH ISSUED TO LOWER LEVEL:          0  ACCURACY: -nan
PSCL5 TIMELY PREFETCHES:          0 LATE PREFETCHES: 0 DROPPED PREFETCHES: 0
PSCL5 PREFETCHES SAME FILL-ORIGIN LEVEL: 0 DIFFERENT FILL-ORIGIN LEVEL: 0

PSCL4 TOTAL     ACCESS:      16329  HIT:      16329  MISS:          0  HIT %:        100  MISS %:          0   MPKI: 0
PSCL4 LOAD TRANSLATION ACCESS:        747  HIT:        747  MISS:          0  HIT %:        100  MISS %:          0   MPKI: 0
PSCL4 TRANSLATION FROM L1D PREFETCHER ACCESS:      15582  HIT:      15582  MISS:          0  HIT %:        100  MISS %:          0   MPKI: 0
PSCL4 PREFETCH  REQUESTED:          0  ISSUED:          0  USEFUL:          0  USELESS:          0
PSCL4 USEFUL LOAD PREFETCHES:          0 PREFETCH ISSUED TO LOWER LEVEL:          0  ACCURACY: -nan
PSCL4 TIMELY PREFETCHES:          0 LATE PREFETCHES: 0 DROPPED PREFETCHES: 0
PSCL4 PREFETCHES SAME FILL-ORIGIN LEVEL: 0 DIFFERENT FILL-ORIGIN LEVEL: 0

PSCL3 TOTAL     ACCESS:      16329  HIT:      16329  MISS:          0  HIT %:        100  MISS %:          0   MPKI: 0
PSCL3 LOAD TRANSLATION ACCESS:        747  HIT:        747  MISS:          0  HIT %:        100  MISS %:          0   MPKI: 0
PSCL3 TRANSLATION FROM L1D PREFETCHER ACCESS:      15582  HIT:      15582  MISS:          0  HIT %:        100  MISS %:          0   MPKI: 0
PSCL3 PREFETCH  REQUESTED:          0  ISSUED:          0  USEFUL:          0  USELESS:          0
PSCL3 USEFUL LOAD PREFETCHES:          0 PREFETCH ISSUED TO LOWER LEVEL:          0  ACCURACY: -nan
PSCL3 TIMELY PREFETCHES:          0 LATE PREFETCHES: 0 DROPPED PREFETCHES: 0
PSCL3 PREFETCHES SAME FILL-ORIGIN LEVEL: 0 DIFFERENT FILL-ORIGIN LEVEL: 0

PSCL2 TOTAL     ACCESS:      16329  HIT:      16319  MISS:         10  HIT %:    99.9388  MISS %:  0.0612407   MPKI: 5e-05
PSCL2 LOAD TRANSLATION ACCESS:        747  HIT:        737  MISS:         10  HIT %:    98.6613  MISS %:    1.33869   MPKI: 5e-05
PSCL2 TRANSLATION FROM L1D PREFETCHER ACCESS:      15582  HIT:      15582  MISS:          0  HIT %:        100  MISS %:          0   MPKI: 0
PSCL2 PREFETCH  REQUESTED:          0  ISSUED:          0  USEFUL:          0  USELESS:          0
PSCL2 USEFUL LOAD PREFETCHES:          0 PREFETCH ISSUED TO LOWER LEVEL:          0  ACCURACY: -nan
PSCL2 TIMELY PREFETCHES:          0 LATE PREFETCHES: 0 DROPPED PREFETCHES: 0
PSCL2 PREFETCHES SAME FILL-ORIGIN LEVEL: 0 DIFFERENT FILL-ORIGIN LEVEL: 0

LLC TOTAL     ACCESS:    3492919  HIT:    2770985  MISS:     721934  HIT %:    79.3315  MISS %:    20.6685   MPKI: 3.60967
LLC LOAD      ACCESS:      22191  HIT:      16204  MISS:       5987  HIT %:    73.0206  MISS %:    26.9794   MPKI: 0.029935
LLC RFO       ACCESS:        715  HIT:        358  MISS:        357  HIT %:    50.0699  MISS %:    49.9301   MPKI: 0.001785
LLC PREFETCH  ACCESS:    3467890  HIT:    2753320  MISS:     714570  HIT %:    79.3947  MISS %:    20.6053   MPKI: 3.57285
LLC WRITEBACK ACCESS:       1391  HIT:        788  MISS:        603  HIT %:    56.6499  MISS %:    43.3501   MPKI: 0.003015
LLC LOAD TRANSLATION ACCESS:        268  HIT:          4  MISS:        264  HIT %:    1.49254  MISS %:    98.5075   MPKI: 0.00132
LLC TRANSLATION FROM L1D PREFETCHER ACCESS:        464  HIT:        311  MISS:        153  HIT %:    67.0259  MISS %:    32.9741   MPKI: 0.000765
LLC PREFETCH  REQUESTED:          0  ISSUED:          0  USEFUL:         87  USELESS:     715822
LLC USEFUL LOAD PREFETCHES:         87 PREFETCH ISSUED TO LOWER LEVEL:     714570  ACCURACY: 0.0121752
LLC TIMELY PREFETCHES:         87 LATE PREFETCHES: 0 DROPPED PREFETCHES: 0
LLC PREFETCHES SAME FILL-ORIGIN LEVEL: 0 DIFFERENT FILL-ORIGIN LEVEL: 0
LLC AVERAGE MISS LATENCY: 92.1536 cycles
LLC RQ	ACCESS:      23638	FORWARD:          0	MERGED:          0	TO_CACHE:      23638
LLC WQ	ACCESS:       1391	FORWARD:          0	MERGED:          0	TO_CACHE:       1391
LLC PQ	ACCESS:    3467889	FORWARD:          0	MERGED:          0	TO_CACHE:    3467889

LLC Dense regions hint to LLC: 0

RAW hits: 11183
Loads Generated: 58965248
Loads sent to L1D: 58954065
Stores Generated: 2967092
Stores sent to L1D: 2967095
Major fault: 0 Minor fault: 1462
Allocated PAGES: 1462

DRAM Statistics
 CHANNEL 0
 RQ ROW_BUFFER_HIT:     624654  ROW_BUFFER_MISS:      96677
 DBUS_CONGESTED:          0
 WQ ROW_BUFFER_HIT:         28  ROW_BUFFER_MISS:        591  FULL:          0

 AVG_CONGESTED_CYCLE: -
 All warmup complete: 2
Channel 0 Bank busy for read cycles: 0
Channel 0 Bank busy for write cycles: 0
Channel 0
Rank 0
0banks busy for read cycles: 202663712
0banks busy for write cycles: 594
1banks busy for read cycles: 14601164
1banks busy for write cycles: 91693
2banks busy for read cycles: 4995379
2banks busy for write cycles: 3657
3banks busy for read cycles: 2922993
3banks busy for write cycles: 0
4banks busy for read cycles: 1691426
4banks busy for write cycles: 0
5banks busy for read cycles: 751976
5banks busy for write cycles: 0
6banks busy for read cycles: 227401
6banks busy for write cycles: 0
7banks busy for read cycles: 63609
7banks busy for write cycles: 0
8banks busy for read cycles: 4774
8banks busy for write cycles: 0

CPU 0 Branch Prediction Accuracy: 99.9906% MPKI: 0.024715 Average ROB Occupancy at Mispredict: 48.3314
Branch types
NOT_BRANCH: 144470826 72.2354%
BRANCH_DIRECT_JUMP: 10018 0.005009%
BRANCH_INDIRECT: 0 0%
BRANCH_CONDITIONAL: 52724206 26.3621%
BRANCH_DIRECT_CALL: 706558 0.353279%
BRANCH_INDIRECT_CALL: 690770 0.345385%
BRANCH_RETURN: 1397326 0.698663%
BRANCH_OTHER: 0 0%

DRAM PAGES: 1048576
Allocated PAGES: 1462
