
*** ChampSim Multicore Out-of-Order Simulator ***

Warmup Instructions: 50000000
Simulation Instructions: 200000000
Number of CPUs: 1
LLC sets: 2048
LLC ways: 16
Off-chip DRAM Size: 4096 MB Channels: 1 Width: 64-bit Data Rate: 6400 MT/s
argv[0]: ./ChampSim/Berti/bin/multiperspective_perceptron8kb-no-vberti-no-no-no-no-no-lru-lru-lru-srrip-drrip-lru-lru-lru-1core-no
argv[1]: -warmup_instructions
argv[2]: 50000000
argv[3]: -simulation_instructions
argv[4]: 200000000
argv[5]: -traces
argv[6]: traces/spec2k17_ten/644.nab_s-12459B.champsimtrace.xz
CPU 0 runs traces/spec2k17_ten/644.nab_s-12459B.champsimtrace.xz
.xz
CPU 0 Multiperspective perceptron branch predictor
BTB has LRU replacement policy
ITLB has LRU replacement policy
DTLB has LRU replacement policy
STLB has LRU replacement policy
L1I has LRU replacement policy
History Sets: 8
History Ways: 16
BERTI Size: 16
BERTI Stride Size: 16
L1D has LRU replacement policy
Initialize SRRIP state for L2C
Initialize DRRIP state for LLC
Heartbeat CPU 0 instructions: 10000001 cycles: 3094435 heartbeat IPC: 3.23161 cumulative IPC: 3.23161 (Simulation time: 0 hr 8 min 5 sec) 
Heartbeat CPU 0 instructions: 20000001 cycles: 6194411 heartbeat IPC: 3.22583 cumulative IPC: 3.22872 (Simulation time: 0 hr 15 min 38 sec) 
Heartbeat CPU 0 instructions: 30000003 cycles: 9291333 heartbeat IPC: 3.22901 cumulative IPC: 3.22882 (Simulation time: 0 hr 19 min 48 sec) 
Heartbeat CPU 0 instructions: 40000003 cycles: 12387804 heartbeat IPC: 3.22948 cumulative IPC: 3.22898 (Simulation time: 0 hr 23 min 51 sec) 
Heartbeat CPU 0 instructions: 50000002 cycles: 15479803 heartbeat IPC: 3.23415 cumulative IPC: 3.23002 (Simulation time: 0 hr 29 min 31 sec) 

Warmup complete CPU 0 instructions: 50000002 cycles: 15479803 (Simulation time: 0 hr 29 min 31 sec) 

Heartbeat CPU 0 instructions: 60000001 cycles: 31024023 heartbeat IPC: 0.643326 cumulative IPC: 0.643326 (Simulation time: 0 hr 37 min 37 sec) 
Heartbeat CPU 0 instructions: 70000002 cycles: 46695167 heartbeat IPC: 0.638116 cumulative IPC: 0.64071 (Simulation time: 0 hr 42 min 16 sec) 
Heartbeat CPU 0 instructions: 80000002 cycles: 62407631 heartbeat IPC: 0.636437 cumulative IPC: 0.63928 (Simulation time: 0 hr 49 min 50 sec) 
Heartbeat CPU 0 instructions: 90000000 cycles: 78047237 heartbeat IPC: 0.639402 cumulative IPC: 0.63931 (Simulation time: 0 hr 58 min 58 sec) 
Heartbeat CPU 0 instructions: 100000001 cycles: 93796765 heartbeat IPC: 0.63494 cumulative IPC: 0.638431 (Simulation time: 1 hr 8 min 36 sec) 
Heartbeat CPU 0 instructions: 110000000 cycles: 109668396 heartbeat IPC: 0.630055 cumulative IPC: 0.63702 (Simulation time: 1 hr 16 min 42 sec) 
Heartbeat CPU 0 instructions: 120000000 cycles: 125587048 heartbeat IPC: 0.628194 cumulative IPC: 0.635744 (Simulation time: 1 hr 22 min 5 sec) 
Heartbeat CPU 0 instructions: 130000002 cycles: 141381764 heartbeat IPC: 0.633123 cumulative IPC: 0.635415 (Simulation time: 1 hr 30 min 27 sec) 
Heartbeat CPU 0 instructions: 140000003 cycles: 157124841 heartbeat IPC: 0.6352 cumulative IPC: 0.635391 (Simulation time: 1 hr 37 min 19 sec) 
Heartbeat CPU 0 instructions: 150000002 cycles: 172822683 heartbeat IPC: 0.63703 cumulative IPC: 0.635555 (Simulation time: 1 hr 40 min 51 sec) 
Heartbeat CPU 0 instructions: 160000003 cycles: 188613695 heartbeat IPC: 0.633272 cumulative IPC: 0.635346 (Simulation time: 1 hr 46 min 21 sec) 
Heartbeat CPU 0 instructions: 170000000 cycles: 204432103 heartbeat IPC: 0.632175 cumulative IPC: 0.635081 (Simulation time: 1 hr 54 min 45 sec) 
Heartbeat CPU 0 instructions: 180000001 cycles: 220077281 heartbeat IPC: 0.639175 cumulative IPC: 0.635394 (Simulation time: 2 hr 0 min 5 sec) 
Heartbeat CPU 0 instructions: 190000001 cycles: 235779772 heartbeat IPC: 0.636842 cumulative IPC: 0.635497 (Simulation time: 2 hr 5 min 41 sec) 
Heartbeat CPU 0 instructions: 200000001 cycles: 251491570 heartbeat IPC: 0.636464 cumulative IPC: 0.635562 (Simulation time: 2 hr 12 min 51 sec) 
Heartbeat CPU 0 instructions: 210000000 cycles: 267226986 heartbeat IPC: 0.635509 cumulative IPC: 0.635558 (Simulation time: 2 hr 22 min 31 sec) 
Heartbeat CPU 0 instructions: 220000000 cycles: 283009266 heartbeat IPC: 0.633622 cumulative IPC: 0.635444 (Simulation time: 2 hr 31 min 25 sec) 
Heartbeat CPU 0 instructions: 230000000 cycles: 298767431 heartbeat IPC: 0.634592 cumulative IPC: 0.635397 (Simulation time: 2 hr 37 min 2 sec) 
Heartbeat CPU 0 instructions: 240000002 cycles: 314575501 heartbeat IPC: 0.632588 cumulative IPC: 0.635248 (Simulation time: 2 hr 43 min 20 sec) 
Heartbeat CPU 0 instructions: 250000002 cycles: 330327188 heartbeat IPC: 0.634853 cumulative IPC: 0.635228 (Simulation time: 2 hr 51 min 28 sec) 
Finished CPU 0 instructions: 200000000 cycles: 314847385 cumulative IPC: 0.635228 (Simulation time: 2 hr 51 min 28 sec) 

ChampSim completed all CPUs

Region of Interest Statistics

CPU 0 cumulative IPC: 0.635228 instructions: 200000000 cycles: 314847385
ITLB TOTAL     ACCESS:   30393936  HIT:   30393936  MISS:          0  HIT %:        100  MISS %:          0   MPKI: 0
ITLB LOAD TRANSLATION ACCESS:   30393936  HIT:   30393936  MISS:          0  HIT %:        100  MISS %:          0   MPKI: 0
ITLB PREFETCH  REQUESTED:          0  ISSUED:          0  USEFUL:          0  USELESS:          0
ITLB USEFUL LOAD PREFETCHES:          0 PREFETCH ISSUED TO LOWER LEVEL:          0  ACCURACY: -nan
ITLB TIMELY PREFETCHES:          0 LATE PREFETCHES: 0 DROPPED PREFETCHES: 0
ITLB PREFETCHES SAME FILL-ORIGIN LEVEL: 0 DIFFERENT FILL-ORIGIN LEVEL: 0
ITLB AVERAGE MISS LATENCY: -nan cycles
ITLB RQ	ACCESS:   34370144	FORWARD:          0	MERGED:    3976208	TO_CACHE:   30393936

DTLB TOTAL     ACCESS:   37653995  HIT:   37599592  MISS:      54403  HIT %:    99.8555  MISS %:   0.144481   MPKI: 0.272015
DTLB LOAD TRANSLATION ACCESS:   37653995  HIT:   37599592  MISS:      54403  HIT %:    99.8555  MISS %:   0.144481   MPKI: 0.272015
DTLB PREFETCH  REQUESTED:          0  ISSUED:          0  USEFUL:          0  USELESS:          0
DTLB USEFUL LOAD PREFETCHES:          0 PREFETCH ISSUED TO LOWER LEVEL:          0  ACCURACY: -nan
DTLB TIMELY PREFETCHES:          0 LATE PREFETCHES: 0 DROPPED PREFETCHES: 0
DTLB PREFETCHES SAME FILL-ORIGIN LEVEL: 0 DIFFERENT FILL-ORIGIN LEVEL: 0
DTLB AVERAGE MISS LATENCY: 10.4086 cycles
DTLB RQ	ACCESS:   47890026	FORWARD:          0	MERGED:   10234839	TO_CACHE:   37655187

STLB TOTAL     ACCESS:    3513004  HIT:    3512472  MISS:        532  HIT %:    99.9849  MISS %:  0.0151437   MPKI: 0.00266
STLB LOAD TRANSLATION ACCESS:      54403  HIT:      53871  MISS:        532  HIT %:    99.0221  MISS %:   0.977887   MPKI: 0.00266
STLB TRANSLATION FROM L1D PREFETCHER ACCESS:    3458601  HIT:    3458601  MISS:          0  HIT %:        100  MISS %:          0   MPKI: 0
STLB PREFETCH  REQUESTED:          0  ISSUED:          0  USEFUL:          0  USELESS:          0
STLB USEFUL LOAD PREFETCHES:          0 PREFETCH ISSUED TO LOWER LEVEL:          0  ACCURACY: -nan
STLB TIMELY PREFETCHES:          0 LATE PREFETCHES: 0 DROPPED PREFETCHES: 475802
STLB PREFETCHES SAME FILL-ORIGIN LEVEL: 0 DIFFERENT FILL-ORIGIN LEVEL: 0
STLB AVERAGE MISS LATENCY: 140.763 cycles
STLB RQ	ACCESS:   12591697	FORWARD:          0	MERGED:    8599447	TO_CACHE:    3992250

STLB Hit, L1D data hit: 0
STLB Hit, L2C data hit: 0
STLB Hit, LLC data hit: 0
STLB Hit, LLC data miss: 0
STLB STLB hints to L2: 0
L1D TOTAL     ACCESS:   55098126  HIT:   53758771  MISS:    1339355  HIT %:    97.5691  MISS %:    2.43085   MPKI: 6.69677
L1D LOAD      ACCESS:   27040111  HIT:   25862194  MISS:    1177917  HIT %:    95.6438  MISS %:    4.35618   MPKI: 5.88959
L1D RFO       ACCESS:   20371707  HIT:   20311377  MISS:      60330  HIT %:    99.7039  MISS %:   0.296146   MPKI: 0.30165
L1D PREFETCH  ACCESS:    7686308  HIT:    7585200  MISS:     101108  HIT %:    98.6846  MISS %:    1.31543   MPKI: 0.50554
L1D PREFETCH  REQUESTED:   25863004  ISSUED:   25535078  USEFUL:      82841  USELESS:      18256
L1D USEFUL LOAD PREFETCHES:      82841 PREFETCH ISSUED TO LOWER LEVEL:    4441527  ACCURACY: 1.86515
L1D TIMELY PREFETCHES:      82841 LATE PREFETCHES: 121 DROPPED PREFETCHES: 503161
L1D PREFETCHES SAME FILL-ORIGIN LEVEL: 101234 DIFFERENT FILL-ORIGIN LEVEL: 4340293
L1D AVERAGE MISS LATENCY: 20.1632 cycles
L1D RQ	ACCESS:   47708184	FORWARD:          0	MERGED:   20360007	TO_CACHE:   27136894
L1D WQ	ACCESS:   20757204	FORWARD:     212701	MERGED:       4072	TO_CACHE:   20753132
L1D PQ	ACCESS:   12997784	FORWARD:          0	MERGED:     459072	TO_CACHE:   12537294

L1D UNIQUE REGIONS ACCESSED: 0
L1D REGIONS CONFLICTS: 0
L1D Cross Page Prefetch Requests: 1745537
L1D Same Page Prefetch Requests: 14535748
L1D ROI Sum of L1D PQ occupancy: 185217176
L1D PREFETCHES PUSHED FROM L2C: 0
L1I TOTAL     ACCESS:   34370144  HIT:   34370144  MISS:          0  HIT %:        100  MISS %:          0   MPKI: 0
L1I LOAD      ACCESS:   34370144  HIT:   34370144  MISS:          0  HIT %:        100  MISS %:          0   MPKI: 0
L1I PREFETCH  REQUESTED:          0  ISSUED:          0  USEFUL:          0  USELESS:          0
L1I USEFUL LOAD PREFETCHES:          0 PREFETCH ISSUED TO LOWER LEVEL:          0  ACCURACY: -nan
L1I TIMELY PREFETCHES:          0 LATE PREFETCHES: 0 DROPPED PREFETCHES: 0
L1I PREFETCHES SAME FILL-ORIGIN LEVEL: 0 DIFFERENT FILL-ORIGIN LEVEL: 0
L1I AVERAGE MISS LATENCY: -nan cycles
L1I RQ	ACCESS:   49318084	FORWARD:          0	MERGED:   14947940	TO_CACHE:   34370144

BTB TOTAL     ACCESS:   27826015  HIT:   27824892  MISS:       1123  HIT %:     99.996  MISS %: 0.00403579   MPKI: 0.005615
BTB BRANCH_DIRECT_JUMP	ACCESS:    1397205  HIT:    1397194  MISS:         11
BTB BRANCH_INDIRECT	ACCESS:          0  HIT:          0  MISS:          0
BTB BRANCH_CONDITIONAL	ACCESS:   25132607  HIT:   25132560  MISS:         47
BTB BRANCH_DIRECT_CALL	ACCESS:     648102  HIT:     648095  MISS:          7
BTB BRANCH_INDIRECT_CALL	ACCESS:          0  HIT:          0  MISS:          0
BTB BRANCH_RETURN	ACCESS:     648101  HIT:     647043  MISS:       1058
BTB BRANCH_OTHER ACCESS:          0  HIT:          0  MISS:          0

L2C TOTAL     ACCESS:    6246364  HIT:    6086136  MISS:     160228  HIT %:    97.4349  MISS %:    2.56514   MPKI: 0.80114
L2C LOAD      ACCESS:    1177794  HIT:    1111802  MISS:      65992  HIT %:     94.397  MISS %:    5.60302   MPKI: 0.32996
L2C DATA LOAD MPKI: 0.32996
L2C INSTRUCTION LOAD MPKI: 0
L2C RFO       ACCESS:      60325  HIT:      30832  MISS:      29493  HIT %:    51.1098  MISS %:    48.8902   MPKI: 0.147465
L2C PREFETCH  ACCESS:    4440104  HIT:    4376607  MISS:      63497  HIT %:    98.5699  MISS %:    1.43008   MPKI: 0.317485
L2C DATA PREFETCH MPKI: 0.317485
L2C INSTRUCTION PREFETCH MPKI: 0
L2C WRITEBACK ACCESS:      91807  HIT:      91183  MISS:        624  HIT %:    99.3203  MISS %:   0.679687   MPKI: 0.00312
L2C LOAD TRANSLATION ACCESS:        532  HIT:        430  MISS:        102  HIT %:    80.8271  MISS %:    19.1729   MPKI: 0.00051
L2C TRANSLATION FROM L1D PREFETCHER ACCESS:     475802  HIT:     475282  MISS:        520  HIT %:    99.8907  MISS %:   0.109289   MPKI: 0.0026
L2C PREFETCH  REQUESTED:          0  ISSUED:          0  USEFUL:      26827  USELESS:      37149
L2C USEFUL LOAD PREFETCHES:      26827 PREFETCH ISSUED TO LOWER LEVEL:      63842  ACCURACY: 42.0209
L2C TIMELY PREFETCHES:      26827 LATE PREFETCHES: 345 DROPPED PREFETCHES: 0
L2C PREFETCHES SAME FILL-ORIGIN LEVEL: 62421 DIFFERENT FILL-ORIGIN LEVEL: 0
L2C AVERAGE MISS LATENCY: 58.0987 cycles
L2C RQ	ACCESS:    1714455	FORWARD:          0	MERGED:          0	TO_CACHE:    1714453
L2C WQ	ACCESS:      91807	FORWARD:          2	MERGED:          0	TO_CACHE:      91807
L2C PQ	ACCESS:    4441527	FORWARD:          0	MERGED:        106	TO_CACHE:    4441421

L2C Instructions Evicting Data 0
L2C Translations Evicting Data 622
L2C Data Evicting Data 158347
L2C Instructions Evicting Instructions 0
L2C Translations Evicting Instructions 0
L2C Data Evicting Instructions 0
L2C Instructions Evicting Translations 0
L2C Translations Evicting Translations 0
L2C Data Evicting Translations 635
L2C Dense regions hint from L2: 0
PSCL5 TOTAL     ACCESS:     476334  HIT:     476334  MISS:          0  HIT %:        100  MISS %:          0   MPKI: 0
PSCL5 LOAD TRANSLATION ACCESS:        532  HIT:        532  MISS:          0  HIT %:        100  MISS %:          0   MPKI: 0
PSCL5 TRANSLATION FROM L1D PREFETCHER ACCESS:     475802  HIT:     475802  MISS:          0  HIT %:        100  MISS %:          0   MPKI: 0
PSCL5 PREFETCH  REQUESTED:          0  ISSUED:          0  USEFUL:          0  USELESS:          0
PSCL5 USEFUL LOAD PREFETCHES:          0 PREFETCH ISSUED TO LOWER LEVEL:          0  ACCURACY: -nan
PSCL5 TIMELY PREFETCHES:          0 LATE PREFETCHES: 0 DROPPED PREFETCHES: 0
PSCL5 PREFETCHES SAME FILL-ORIGIN LEVEL: 0 DIFFERENT FILL-ORIGIN LEVEL: 0

PSCL4 TOTAL     ACCESS:     476334  HIT:     476334  MISS:          0  HIT %:        100  MISS %:          0   MPKI: 0
PSCL4 LOAD TRANSLATION ACCESS:        532  HIT:        532  MISS:          0  HIT %:        100  MISS %:          0   MPKI: 0
PSCL4 TRANSLATION FROM L1D PREFETCHER ACCESS:     475802  HIT:     475802  MISS:          0  HIT %:        100  MISS %:          0   MPKI: 0
PSCL4 PREFETCH  REQUESTED:          0  ISSUED:          0  USEFUL:          0  USELESS:          0
PSCL4 USEFUL LOAD PREFETCHES:          0 PREFETCH ISSUED TO LOWER LEVEL:          0  ACCURACY: -nan
PSCL4 TIMELY PREFETCHES:          0 LATE PREFETCHES: 0 DROPPED PREFETCHES: 0
PSCL4 PREFETCHES SAME FILL-ORIGIN LEVEL: 0 DIFFERENT FILL-ORIGIN LEVEL: 0

PSCL3 TOTAL     ACCESS:     476334  HIT:     476334  MISS:          0  HIT %:        100  MISS %:          0   MPKI: 0
PSCL3 LOAD TRANSLATION ACCESS:        532  HIT:        532  MISS:          0  HIT %:        100  MISS %:          0   MPKI: 0
PSCL3 TRANSLATION FROM L1D PREFETCHER ACCESS:     475802  HIT:     475802  MISS:          0  HIT %:        100  MISS %:          0   MPKI: 0
PSCL3 PREFETCH  REQUESTED:          0  ISSUED:          0  USEFUL:          0  USELESS:          0
PSCL3 USEFUL LOAD PREFETCHES:          0 PREFETCH ISSUED TO LOWER LEVEL:          0  ACCURACY: -nan
PSCL3 TIMELY PREFETCHES:          0 LATE PREFETCHES: 0 DROPPED PREFETCHES: 0
PSCL3 PREFETCHES SAME FILL-ORIGIN LEVEL: 0 DIFFERENT FILL-ORIGIN LEVEL: 0

PSCL2 TOTAL     ACCESS:     476334  HIT:     476333  MISS:          1  HIT %:    99.9998  MISS %: 0.000209937   MPKI: 5e-06
PSCL2 LOAD TRANSLATION ACCESS:        532  HIT:        531  MISS:          1  HIT %:     99.812  MISS %:    0.18797   MPKI: 5e-06
PSCL2 TRANSLATION FROM L1D PREFETCHER ACCESS:     475802  HIT:     475802  MISS:          0  HIT %:        100  MISS %:          0   MPKI: 0
PSCL2 PREFETCH  REQUESTED:          0  ISSUED:          0  USEFUL:          0  USELESS:          0
PSCL2 USEFUL LOAD PREFETCHES:          0 PREFETCH ISSUED TO LOWER LEVEL:          0  ACCURACY: -nan
PSCL2 TIMELY PREFETCHES:          0 LATE PREFETCHES: 0 DROPPED PREFETCHES: 0
PSCL2 PREFETCHES SAME FILL-ORIGIN LEVEL: 0 DIFFERENT FILL-ORIGIN LEVEL: 0

LLC TOTAL     ACCESS:     189796  HIT:     154870  MISS:      34926  HIT %:    81.5981  MISS %:    18.4019   MPKI: 0.17463
LLC LOAD      ACCESS:      65649  HIT:      63907  MISS:       1742  HIT %:    97.3465  MISS %:    2.65351   MPKI: 0.00871
LLC RFO       ACCESS:      29491  HIT:        255  MISS:      29236  HIT %:   0.864671  MISS %:    99.1353   MPKI: 0.14618
LLC PREFETCH  ACCESS:      63842  HIT:      60341  MISS:       3501  HIT %:    94.5161  MISS %:    5.48385   MPKI: 0.017505
LLC WRITEBACK ACCESS:      30192  HIT:      29828  MISS:        364  HIT %:    98.7944  MISS %:    1.20562   MPKI: 0.00182
LLC LOAD TRANSLATION ACCESS:        102  HIT:         38  MISS:         64  HIT %:    37.2549  MISS %:    62.7451   MPKI: 0.00032
LLC TRANSLATION FROM L1D PREFETCHER ACCESS:        520  HIT:        501  MISS:         19  HIT %:    96.3462  MISS %:    3.65385   MPKI: 9.5e-05
LLC PREFETCH  REQUESTED:          0  ISSUED:          0  USEFUL:       1644  USELESS:       1252
LLC USEFUL LOAD PREFETCHES:       1644 PREFETCH ISSUED TO LOWER LEVEL:       3501  ACCURACY: 46.958
LLC TIMELY PREFETCHES:       1644 LATE PREFETCHES: 0 DROPPED PREFETCHES: 0
LLC PREFETCHES SAME FILL-ORIGIN LEVEL: 0 DIFFERENT FILL-ORIGIN LEVEL: 0
LLC AVERAGE MISS LATENCY: 129.373 cycles
LLC RQ	ACCESS:      95762	FORWARD:          0	MERGED:          0	TO_CACHE:      95762
LLC WQ	ACCESS:      30192	FORWARD:          0	MERGED:          0	TO_CACHE:      30192
LLC PQ	ACCESS:      63842	FORWARD:          0	MERGED:          0	TO_CACHE:      63842

LLC Dense regions hint to LLC: 0

RAW hits: 2913587
Loads Generated: 50621771
Loads sent to L1D: 47708184
Stores Generated: 20757203
Stores sent to L1D: 20757204
Major fault: 0 Minor fault: 887
Allocated PAGES: 887

DRAM Statistics
 CHANNEL 0
 RQ ROW_BUFFER_HIT:      14442  ROW_BUFFER_MISS:      20120
 DBUS_CONGESTED:         19
 WQ ROW_BUFFER_HIT:       9289  ROW_BUFFER_MISS:       7523  FULL:          0

 AVG_CONGESTED_CYCLE: 6
 All warmup complete: 2
Channel 0 Bank busy for read cycles: 0
Channel 0 Bank busy for write cycles: 0
Channel 0
Rank 0
0banks busy for read cycles: 310203884
0banks busy for write cycles: 2067
1banks busy for read cycles: 3290449
1banks busy for write cycles: 306892
2banks busy for read cycles: 161428
2banks busy for write cycles: 86593
3banks busy for read cycles: 20121
3banks busy for write cycles: 43482
4banks busy for read cycles: 7928
4banks busy for write cycles: 34684
5banks busy for read cycles: 2973
5banks busy for write cycles: 29742
6banks busy for read cycles: 1325
6banks busy for write cycles: 30840
7banks busy for read cycles: 1158
7banks busy for write cycles: 45770
8banks busy for read cycles: 491
8banks busy for write cycles: 577559

CPU 0 Branch Prediction Accuracy: 97.9433% MPKI: 2.59869 Average ROB Occupancy at Mispredict: 95.8212
Branch types
NOT_BRANCH: 172036358 86.0182%
BRANCH_DIRECT_JUMP: 1397205 0.698603%
BRANCH_INDIRECT: 0 0%
BRANCH_CONDITIONAL: 25270217 12.6351%
BRANCH_DIRECT_CALL: 648102 0.324051%
BRANCH_INDIRECT_CALL: 0 0%
BRANCH_RETURN: 648101 0.324051%
BRANCH_OTHER: 0 0%

DRAM PAGES: 1048576
Allocated PAGES: 887
