
*** ChampSim Multicore Out-of-Order Simulator ***

Warmup Instructions: 50000000
Simulation Instructions: 200000000
Number of CPUs: 1
LLC sets: 2048
LLC ways: 16
Off-chip DRAM Size: 4096 MB Channels: 1 Width: 64-bit Data Rate: 6400 MT/s
argv[0]: ./ChampSim/Berti/bin/multiperspective_perceptron8kb-no-vberti-no-no-no-no-no-lru-lru-lru-srrip-drrip-lru-lru-lru-1core-no
argv[1]: -warmup_instructions
argv[2]: 50000000
argv[3]: -simulation_instructions
argv[4]: 200000000
argv[5]: -traces
argv[6]: traces/spec2k17_ten/644.nab_s-12521B.champsimtrace.xz
CPU 0 runs traces/spec2k17_ten/644.nab_s-12521B.champsimtrace.xz
.xz
CPU 0 Multiperspective perceptron branch predictor
BTB has LRU replacement policy
ITLB has LRU replacement policy
DTLB has LRU replacement policy
STLB has LRU replacement policy
L1I has LRU replacement policy
History Sets: 8
History Ways: 16
BERTI Size: 16
BERTI Stride Size: 16
L1D has LRU replacement policy
Initialize SRRIP state for L2C
Initialize DRRIP state for LLC
Heartbeat CPU 0 instructions: 10000000 cycles: 3019226 heartbeat IPC: 3.31211 cumulative IPC: 3.31211 (Simulation time: 0 hr 11 min 6 sec) 
Heartbeat CPU 0 instructions: 20000000 cycles: 6039545 heartbeat IPC: 3.31091 cumulative IPC: 3.31151 (Simulation time: 0 hr 19 min 32 sec) 
Heartbeat CPU 0 instructions: 30000000 cycles: 9060903 heartbeat IPC: 3.30977 cumulative IPC: 3.31093 (Simulation time: 0 hr 27 min 33 sec) 
Heartbeat CPU 0 instructions: 40000001 cycles: 12082717 heartbeat IPC: 3.30927 cumulative IPC: 3.31051 (Simulation time: 0 hr 35 min 46 sec) 
Heartbeat CPU 0 instructions: 50000001 cycles: 15102576 heartbeat IPC: 3.31141 cumulative IPC: 3.31069 (Simulation time: 0 hr 44 min 18 sec) 

Warmup complete CPU 0 instructions: 50000001 cycles: 15102576 (Simulation time: 0 hr 44 min 18 sec) 

Heartbeat CPU 0 instructions: 60000000 cycles: 24878599 heartbeat IPC: 1.02291 cumulative IPC: 1.02291 (Simulation time: 0 hr 55 min 5 sec) 
Heartbeat CPU 0 instructions: 70000000 cycles: 34629631 heartbeat IPC: 1.02553 cumulative IPC: 1.02422 (Simulation time: 1 hr 7 min 4 sec) 
Heartbeat CPU 0 instructions: 80000002 cycles: 44366670 heartbeat IPC: 1.02701 cumulative IPC: 1.02515 (Simulation time: 1 hr 17 min 19 sec) 
Heartbeat CPU 0 instructions: 90000002 cycles: 54142906 heartbeat IPC: 1.02289 cumulative IPC: 1.02458 (Simulation time: 1 hr 25 min 33 sec) 
Heartbeat CPU 0 instructions: 100000003 cycles: 63964555 heartbeat IPC: 1.01816 cumulative IPC: 1.02329 (Simulation time: 1 hr 36 min 45 sec) 
Heartbeat CPU 0 instructions: 110000000 cycles: 73685065 heartbeat IPC: 1.02875 cumulative IPC: 1.0242 (Simulation time: 1 hr 45 min 30 sec) 
Heartbeat CPU 0 instructions: 120000003 cycles: 83389348 heartbeat IPC: 1.03047 cumulative IPC: 1.02509 (Simulation time: 1 hr 55 min 41 sec) 
Heartbeat CPU 0 instructions: 130000003 cycles: 93115776 heartbeat IPC: 1.02813 cumulative IPC: 1.02547 (Simulation time: 2 hr 4 min 15 sec) 
Heartbeat CPU 0 instructions: 140000002 cycles: 102845374 heartbeat IPC: 1.02779 cumulative IPC: 1.02573 (Simulation time: 2 hr 13 min 14 sec) 
Heartbeat CPU 0 instructions: 150000003 cycles: 112597475 heartbeat IPC: 1.02542 cumulative IPC: 1.02569 (Simulation time: 2 hr 24 min 39 sec) 
Heartbeat CPU 0 instructions: 160000000 cycles: 122431495 heartbeat IPC: 1.01688 cumulative IPC: 1.02489 (Simulation time: 2 hr 36 min 13 sec) 
Heartbeat CPU 0 instructions: 170000001 cycles: 132216623 heartbeat IPC: 1.02196 cumulative IPC: 1.02464 (Simulation time: 2 hr 44 min 1 sec) 
Heartbeat CPU 0 instructions: 180000002 cycles: 141923470 heartbeat IPC: 1.0302 cumulative IPC: 1.02507 (Simulation time: 2 hr 55 min 38 sec) 
Heartbeat CPU 0 instructions: 190000003 cycles: 151658124 heartbeat IPC: 1.02726 cumulative IPC: 1.02522 (Simulation time: 3 hr 5 min 41 sec) 
Heartbeat CPU 0 instructions: 200000003 cycles: 161382302 heartbeat IPC: 1.02836 cumulative IPC: 1.02543 (Simulation time: 3 hr 14 min 8 sec) 
Heartbeat CPU 0 instructions: 210000002 cycles: 171103631 heartbeat IPC: 1.02867 cumulative IPC: 1.02563 (Simulation time: 3 hr 19 min 46 sec) 
Heartbeat CPU 0 instructions: 220000000 cycles: 180854619 heartbeat IPC: 1.02554 cumulative IPC: 1.02563 (Simulation time: 3 hr 24 min 57 sec) 
Heartbeat CPU 0 instructions: 230000002 cycles: 190582394 heartbeat IPC: 1.02798 cumulative IPC: 1.02576 (Simulation time: 3 hr 29 min 45 sec) 
Heartbeat CPU 0 instructions: 240000002 cycles: 200332475 heartbeat IPC: 1.02563 cumulative IPC: 1.02575 (Simulation time: 3 hr 33 min 45 sec) 
Heartbeat CPU 0 instructions: 250000000 cycles: 210099120 heartbeat IPC: 1.02389 cumulative IPC: 1.02566 (Simulation time: 3 hr 36 min 33 sec) 
Finished CPU 0 instructions: 200000000 cycles: 194996545 cumulative IPC: 1.02566 (Simulation time: 3 hr 36 min 33 sec) 

ChampSim completed all CPUs

Region of Interest Statistics

CPU 0 cumulative IPC: 1.02566 instructions: 200000000 cycles: 194996545
ITLB TOTAL     ACCESS:   30842235  HIT:   30842235  MISS:          0  HIT %:        100  MISS %:          0   MPKI: 0
ITLB LOAD TRANSLATION ACCESS:   30842235  HIT:   30842235  MISS:          0  HIT %:        100  MISS %:          0   MPKI: 0
ITLB PREFETCH  REQUESTED:          0  ISSUED:          0  USEFUL:          0  USELESS:          0
ITLB USEFUL LOAD PREFETCHES:          0 PREFETCH ISSUED TO LOWER LEVEL:          0  ACCURACY: -nan
ITLB TIMELY PREFETCHES:          0 LATE PREFETCHES: 0 DROPPED PREFETCHES: 0
ITLB PREFETCHES SAME FILL-ORIGIN LEVEL: 0 DIFFERENT FILL-ORIGIN LEVEL: 0
ITLB AVERAGE MISS LATENCY: -nan cycles
ITLB RQ	ACCESS:   34579667	FORWARD:          0	MERGED:    3737433	TO_CACHE:   30842234

DTLB TOTAL     ACCESS:   37012817  HIT:   36995529  MISS:      17288  HIT %:    99.9533  MISS %:  0.0467081   MPKI: 0.08644
DTLB LOAD TRANSLATION ACCESS:   37012817  HIT:   36995529  MISS:      17288  HIT %:    99.9533  MISS %:  0.0467081   MPKI: 0.08644
DTLB PREFETCH  REQUESTED:          0  ISSUED:          0  USEFUL:          0  USELESS:          0
DTLB USEFUL LOAD PREFETCHES:          0 PREFETCH ISSUED TO LOWER LEVEL:          0  ACCURACY: -nan
DTLB TIMELY PREFETCHES:          0 LATE PREFETCHES: 0 DROPPED PREFETCHES: 0
DTLB PREFETCHES SAME FILL-ORIGIN LEVEL: 0 DIFFERENT FILL-ORIGIN LEVEL: 0
DTLB AVERAGE MISS LATENCY: 41.69 cycles
DTLB RQ	ACCESS:   51228746	FORWARD:          0	MERGED:   14215029	TO_CACHE:   37013717

STLB TOTAL     ACCESS:   13249823  HIT:   13245194  MISS:       4629  HIT %:    99.9651  MISS %:  0.0349363   MPKI: 0.023145
STLB LOAD TRANSLATION ACCESS:      17288  HIT:      12681  MISS:       4607  HIT %:    73.3515  MISS %:    26.6485   MPKI: 0.023035
STLB TRANSLATION FROM L1D PREFETCHER ACCESS:   13232535  HIT:   13232513  MISS:         22  HIT %:    99.9998  MISS %: 0.000166257   MPKI: 0.00011
STLB PREFETCH  REQUESTED:          0  ISSUED:          0  USEFUL:         21  USELESS:          1
STLB USEFUL LOAD PREFETCHES:         21 PREFETCH ISSUED TO LOWER LEVEL:          0  ACCURACY: inf
STLB TIMELY PREFETCHES:         21 LATE PREFETCHES: 37 DROPPED PREFETCHES: 334345
STLB PREFETCHES SAME FILL-ORIGIN LEVEL: 0 DIFFERENT FILL-ORIGIN LEVEL: 0
STLB AVERAGE MISS LATENCY: 122.183 cycles
STLB RQ	ACCESS:   50997016	FORWARD:          0	MERGED:   37411265	TO_CACHE:   13585751

STLB Hit, L1D data hit: 0
STLB Hit, L2C data hit: 0
STLB Hit, LLC data hit: 0
STLB Hit, LLC data miss: 0
STLB STLB hints to L2: 0
L1D TOTAL     ACCESS:   87667831  HIT:   85909909  MISS:    1757922  HIT %:    97.9948  MISS %:    2.00521   MPKI: 8.78961
L1D LOAD      ACCESS:   45657062  HIT:   45389838  MISS:     267224  HIT %:    99.4147  MISS %:   0.585285   MPKI: 1.33612
L1D RFO       ACCESS:    5549337  HIT:    5547107  MISS:       2230  HIT %:    99.9598  MISS %:   0.040185   MPKI: 0.01115
L1D PREFETCH  ACCESS:   36461432  HIT:   34972964  MISS:    1488468  HIT %:    95.9177  MISS %:    4.08231   MPKI: 7.44234
L1D PREFETCH  REQUESTED:  110730620  ISSUED:  102801566  USEFUL:    1162121  USELESS:     326486
L1D USEFUL LOAD PREFETCHES:    1162121 PREFETCH ISSUED TO LOWER LEVEL:   15254066  ACCURACY: 7.61843
L1D TIMELY PREFETCHES:    1162121 LATE PREFETCHES: 608 DROPPED PREFETCHES: 718932
L1D PREFETCHES SAME FILL-ORIGIN LEVEL: 1489084 DIFFERENT FILL-ORIGIN LEVEL: 13764982
L1D AVERAGE MISS LATENCY: 19.4898 cycles
L1D RQ	ACCESS:   58745208	FORWARD:          0	MERGED:   13070856	TO_CACHE:   45674169
L1D WQ	ACCESS:    5554577	FORWARD:        190	MERGED:          0	TO_CACHE:    5554577
L1D PQ	ACCESS:   51821838	FORWARD:          0	MERGED:     842103	TO_CACHE:   50979728

L1D UNIQUE REGIONS ACCESSED: 0
L1D REGIONS CONFLICTS: 0
L1D Cross Page Prefetch Requests: 6750417
L1D Same Page Prefetch Requests: 57691487
L1D ROI Sum of L1D PQ occupancy: 766899653
L1D PREFETCHES PUSHED FROM L2C: 0
L1I TOTAL     ACCESS:   34579667  HIT:   34579667  MISS:          0  HIT %:        100  MISS %:          0   MPKI: 0
L1I LOAD      ACCESS:   34579667  HIT:   34579667  MISS:          0  HIT %:        100  MISS %:          0   MPKI: 0
L1I PREFETCH  REQUESTED:          0  ISSUED:          0  USEFUL:          0  USELESS:          0
L1I USEFUL LOAD PREFETCHES:          0 PREFETCH ISSUED TO LOWER LEVEL:          0  ACCURACY: -nan
L1I TIMELY PREFETCHES:          0 LATE PREFETCHES: 0 DROPPED PREFETCHES: 0
L1I PREFETCHES SAME FILL-ORIGIN LEVEL: 0 DIFFERENT FILL-ORIGIN LEVEL: 0
L1I AVERAGE MISS LATENCY: -nan cycles
L1I RQ	ACCESS:   53789943	FORWARD:          0	MERGED:   19210276	TO_CACHE:   34579667

BTB TOTAL     ACCESS:   14722463  HIT:   14722449  MISS:         14  HIT %:    99.9999  MISS %: 9.50928e-05   MPKI: 7e-05
BTB BRANCH_DIRECT_JUMP	ACCESS:       3849  HIT:       3848  MISS:          1
BTB BRANCH_INDIRECT	ACCESS:          0  HIT:          0  MISS:          0
BTB BRANCH_CONDITIONAL	ACCESS:   14718614  HIT:   14718601  MISS:         13
BTB BRANCH_DIRECT_CALL	ACCESS:          0  HIT:          0  MISS:          0
BTB BRANCH_INDIRECT_CALL	ACCESS:          0  HIT:          0  MISS:          0
BTB BRANCH_RETURN	ACCESS:          0  HIT:          0  MISS:          0
BTB BRANCH_OTHER ACCESS:          0  HIT:          0  MISS:          0

L2C TOTAL     ACCESS:   16303481  HIT:   16147693  MISS:     155788  HIT %:    99.0444  MISS %:   0.955551   MPKI: 0.77894
L2C LOAD      ACCESS:     266612  HIT:     256963  MISS:       9649  HIT %:    96.3809  MISS %:    3.61912   MPKI: 0.048245
L2C DATA LOAD MPKI: 0.048245
L2C INSTRUCTION LOAD MPKI: 0
L2C RFO       ACCESS:       2229  HIT:       2229  MISS:          0  HIT %:        100  MISS %:          0   MPKI: 0
L2C PREFETCH  ACCESS:   15223602  HIT:   15078437  MISS:     145165  HIT %:    99.0464  MISS %:   0.953552   MPKI: 0.725825
L2C DATA PREFETCH MPKI: 0.725825
L2C INSTRUCTION PREFETCH MPKI: 0
L2C WRITEBACK ACCESS:     472027  HIT:     471855  MISS:        172  HIT %:    99.9636  MISS %:  0.0364386   MPKI: 0.00086
L2C LOAD TRANSLATION ACCESS:       4607  HIT:       4334  MISS:        273  HIT %:    94.0742  MISS %:    5.92577   MPKI: 0.001365
L2C TRANSLATION FROM L1D PREFETCHER ACCESS:     334404  HIT:     333875  MISS:        529  HIT %:    99.8418  MISS %:   0.158192   MPKI: 0.002645
L2C PREFETCH  REQUESTED:          0  ISSUED:          0  USEFUL:       6331  USELESS:     139075
L2C USEFUL LOAD PREFETCHES:       6331 PREFETCH ISSUED TO LOWER LEVEL:     145199  ACCURACY: 4.36022
L2C TIMELY PREFETCHES:       6331 LATE PREFETCHES: 34 DROPPED PREFETCHES: 0
L2C PREFETCHES SAME FILL-ORIGIN LEVEL: 91988 DIFFERENT FILL-ORIGIN LEVEL: 0
L2C AVERAGE MISS LATENCY: 111.47 cycles
L2C RQ	ACCESS:     607856	FORWARD:          0	MERGED:          0	TO_CACHE:     607852
L2C WQ	ACCESS:     472027	FORWARD:         25	MERGED:          0	TO_CACHE:     472027
L2C PQ	ACCESS:   15254050	FORWARD:          0	MERGED:        233	TO_CACHE:   15253796

L2C Instructions Evicting Data 0
L2C Translations Evicting Data 802
L2C Data Evicting Data 153997
L2C Instructions Evicting Instructions 0
L2C Translations Evicting Instructions 0
L2C Data Evicting Instructions 0
L2C Instructions Evicting Translations 0
L2C Translations Evicting Translations 0
L2C Data Evicting Translations 817
L2C Dense regions hint from L2: 0
PSCL5 TOTAL     ACCESS:     339011  HIT:     339011  MISS:          0  HIT %:        100  MISS %:          0   MPKI: 0
PSCL5 LOAD TRANSLATION ACCESS:       4607  HIT:       4607  MISS:          0  HIT %:        100  MISS %:          0   MPKI: 0
PSCL5 TRANSLATION FROM L1D PREFETCHER ACCESS:     334404  HIT:     334404  MISS:          0  HIT %:        100  MISS %:          0   MPKI: 0
PSCL5 PREFETCH  REQUESTED:          0  ISSUED:          0  USEFUL:          0  USELESS:          0
PSCL5 USEFUL LOAD PREFETCHES:          0 PREFETCH ISSUED TO LOWER LEVEL:          0  ACCURACY: -nan
PSCL5 TIMELY PREFETCHES:          0 LATE PREFETCHES: 0 DROPPED PREFETCHES: 0
PSCL5 PREFETCHES SAME FILL-ORIGIN LEVEL: 0 DIFFERENT FILL-ORIGIN LEVEL: 0

PSCL4 TOTAL     ACCESS:     339011  HIT:     339011  MISS:          0  HIT %:        100  MISS %:          0   MPKI: 0
PSCL4 LOAD TRANSLATION ACCESS:       4607  HIT:       4607  MISS:          0  HIT %:        100  MISS %:          0   MPKI: 0
PSCL4 TRANSLATION FROM L1D PREFETCHER ACCESS:     334404  HIT:     334404  MISS:          0  HIT %:        100  MISS %:          0   MPKI: 0
PSCL4 PREFETCH  REQUESTED:          0  ISSUED:          0  USEFUL:          0  USELESS:          0
PSCL4 USEFUL LOAD PREFETCHES:          0 PREFETCH ISSUED TO LOWER LEVEL:          0  ACCURACY: -nan
PSCL4 TIMELY PREFETCHES:          0 LATE PREFETCHES: 0 DROPPED PREFETCHES: 0
PSCL4 PREFETCHES SAME FILL-ORIGIN LEVEL: 0 DIFFERENT FILL-ORIGIN LEVEL: 0

PSCL3 TOTAL     ACCESS:     339011  HIT:     339011  MISS:          0  HIT %:        100  MISS %:          0   MPKI: 0
PSCL3 LOAD TRANSLATION ACCESS:       4607  HIT:       4607  MISS:          0  HIT %:        100  MISS %:          0   MPKI: 0
PSCL3 TRANSLATION FROM L1D PREFETCHER ACCESS:     334404  HIT:     334404  MISS:          0  HIT %:        100  MISS %:          0   MPKI: 0
PSCL3 PREFETCH  REQUESTED:          0  ISSUED:          0  USEFUL:          0  USELESS:          0
PSCL3 USEFUL LOAD PREFETCHES:          0 PREFETCH ISSUED TO LOWER LEVEL:          0  ACCURACY: -nan
PSCL3 TIMELY PREFETCHES:          0 LATE PREFETCHES: 0 DROPPED PREFETCHES: 0
PSCL3 PREFETCHES SAME FILL-ORIGIN LEVEL: 0 DIFFERENT FILL-ORIGIN LEVEL: 0

PSCL2 TOTAL     ACCESS:     338501  HIT:     338490  MISS:         11  HIT %:    99.9968  MISS %: 0.00324962   MPKI: 5.5e-05
PSCL2 LOAD TRANSLATION ACCESS:       4607  HIT:       4596  MISS:         11  HIT %:    99.7612  MISS %:   0.238767   MPKI: 5.5e-05
PSCL2 TRANSLATION FROM L1D PREFETCHER ACCESS:     333894  HIT:     333894  MISS:          0  HIT %:        100  MISS %:          0   MPKI: 0
PSCL2 PREFETCH  REQUESTED:          0  ISSUED:          0  USEFUL:          0  USELESS:          0
PSCL2 USEFUL LOAD PREFETCHES:          0 PREFETCH ISSUED TO LOWER LEVEL:          0  ACCURACY: -nan
PSCL2 TIMELY PREFETCHES:          0 LATE PREFETCHES: 0 DROPPED PREFETCHES: 0
PSCL2 PREFETCHES SAME FILL-ORIGIN LEVEL: 0 DIFFERENT FILL-ORIGIN LEVEL: 0

LLC TOTAL     ACCESS:     158332  HIT:       8349  MISS:     149983  HIT %:     5.2731  MISS %:    94.7269   MPKI: 0.749915
LLC LOAD      ACCESS:       9615  HIT:        675  MISS:       8940  HIT %:    7.02028  MISS %:    92.9797   MPKI: 0.0447
LLC PREFETCH  ACCESS:     145199  HIT:       5891  MISS:     139308  HIT %:    4.05719  MISS %:    95.9428   MPKI: 0.69654
LLC WRITEBACK ACCESS:       2716  HIT:       1724  MISS:        992  HIT %:    63.4757  MISS %:    36.5243   MPKI: 0.00496
LLC LOAD TRANSLATION ACCESS:        273  HIT:         30  MISS:        243  HIT %:     10.989  MISS %:     89.011   MPKI: 0.001215
LLC TRANSLATION FROM L1D PREFETCHER ACCESS:        529  HIT:         29  MISS:        500  HIT %:    5.48204  MISS %:     94.518   MPKI: 0.0025
LLC PREFETCH  REQUESTED:          0  ISSUED:          0  USEFUL:        409  USELESS:     139308
LLC USEFUL LOAD PREFETCHES:        409 PREFETCH ISSUED TO LOWER LEVEL:     139308  ACCURACY: 0.293594
LLC TIMELY PREFETCHES:        409 LATE PREFETCHES: 0 DROPPED PREFETCHES: 0
LLC PREFETCHES SAME FILL-ORIGIN LEVEL: 0 DIFFERENT FILL-ORIGIN LEVEL: 0
LLC AVERAGE MISS LATENCY: 84.5719 cycles
LLC RQ	ACCESS:      10417	FORWARD:          0	MERGED:          0	TO_CACHE:      10417
LLC WQ	ACCESS:       2716	FORWARD:          0	MERGED:          0	TO_CACHE:       2716
LLC PQ	ACCESS:     145199	FORWARD:          0	MERGED:          0	TO_CACHE:     145199

LLC Dense regions hint to LLC: 0

RAW hits: 2521
Loads Generated: 58747734
Loads sent to L1D: 58745208
Stores Generated: 5554575
Stores sent to L1D: 5554577
Major fault: 0 Minor fault: 5932
Allocated PAGES: 5932

DRAM Statistics
 CHANNEL 0
 RQ ROW_BUFFER_HIT:     129165  ROW_BUFFER_MISS:      19826
 DBUS_CONGESTED:          0
 WQ ROW_BUFFER_HIT:         16  ROW_BUFFER_MISS:       1078  FULL:          0

 AVG_CONGESTED_CYCLE: -
 All warmup complete: 2
Channel 0 Bank busy for read cycles: 0
Channel 0 Bank busy for write cycles: 0
Channel 0
Rank 0
0banks busy for read cycles: 187405760
0banks busy for write cycles: 1031
1banks busy for read cycles: 6644548
1banks busy for write cycles: 150886
2banks busy for read cycles: 380538
2banks busy for write cycles: 4892
3banks busy for read cycles: 104580
3banks busy for write cycles: 1800
4banks busy for read cycles: 117618
4banks busy for write cycles: 262
5banks busy for read cycles: 44516
5banks busy for write cycles: 0
6banks busy for read cycles: 31779
6banks busy for write cycles: 0
7banks busy for read cycles: 37587
7banks busy for write cycles: 0
8banks busy for read cycles: 70749
8banks busy for write cycles: 0

CPU 0 Branch Prediction Accuracy: 99.9431% MPKI: 0.057605 Average ROB Occupancy at Mispredict: 183.269
Branch types
NOT_BRANCH: 179758375 89.8792%
BRANCH_DIRECT_JUMP: 3849 0.0019245%
BRANCH_INDIRECT: 0 0%
BRANCH_CONDITIONAL: 20237781 10.1189%
BRANCH_DIRECT_CALL: 0 0%
BRANCH_INDIRECT_CALL: 0 0%
BRANCH_RETURN: 0 0%
BRANCH_OTHER: 0 0%

DRAM PAGES: 1048576
Allocated PAGES: 5932
