
*** ChampSim Multicore Out-of-Order Simulator ***

Warmup Instructions: 50000000
Simulation Instructions: 200000000
Number of CPUs: 1
LLC sets: 2048
LLC ways: 16
Off-chip DRAM Size: 4096 MB Channels: 1 Width: 64-bit Data Rate: 6400 MT/s
argv[0]: ./ChampSim/Berti/bin/multiperspective_perceptron8kb-no-vberti-no-no-no-no-no-lru-lru-lru-srrip-drrip-lru-lru-lru-1core-no
argv[1]: -warmup_instructions
argv[2]: 50000000
argv[3]: -simulation_instructions
argv[4]: 200000000
argv[5]: -traces
argv[6]: traces/spec2k17_ten/644.nab_s-5853B.champsimtrace.xz
CPU 0 runs traces/spec2k17_ten/644.nab_s-5853B.champsimtrace.xz
.xz
CPU 0 Multiperspective perceptron branch predictor
BTB has LRU replacement policy
ITLB has LRU replacement policy
DTLB has LRU replacement policy
STLB has LRU replacement policy
L1I has LRU replacement policy
History Sets: 8
History Ways: 16
BERTI Size: 16
BERTI Stride Size: 16
L1D has LRU replacement policy
Initialize SRRIP state for L2C
Initialize DRRIP state for LLC
Heartbeat CPU 0 instructions: 10000002 cycles: 3238330 heartbeat IPC: 3.08801 cumulative IPC: 3.08801 (Simulation time: 0 hr 5 min 19 sec) 
Heartbeat CPU 0 instructions: 20000001 cycles: 6476519 heartbeat IPC: 3.08815 cumulative IPC: 3.08808 (Simulation time: 0 hr 8 min 25 sec) 
Heartbeat CPU 0 instructions: 30000000 cycles: 9710817 heartbeat IPC: 3.09186 cumulative IPC: 3.08934 (Simulation time: 0 hr 12 min 3 sec) 
Heartbeat CPU 0 instructions: 40000001 cycles: 12924407 heartbeat IPC: 3.11178 cumulative IPC: 3.09492 (Simulation time: 0 hr 20 min 9 sec) 
Heartbeat CPU 0 instructions: 50000001 cycles: 16141303 heartbeat IPC: 3.10859 cumulative IPC: 3.09764 (Simulation time: 0 hr 28 min 25 sec) 

Warmup complete CPU 0 instructions: 50000001 cycles: 16141303 (Simulation time: 0 hr 28 min 25 sec) 

Heartbeat CPU 0 instructions: 60000000 cycles: 30833839 heartbeat IPC: 0.680618 cumulative IPC: 0.680618 (Simulation time: 0 hr 36 min 24 sec) 
Heartbeat CPU 0 instructions: 70000000 cycles: 45488378 heartbeat IPC: 0.682382 cumulative IPC: 0.681499 (Simulation time: 0 hr 44 min 6 sec) 
Heartbeat CPU 0 instructions: 80000003 cycles: 60143307 heartbeat IPC: 0.682364 cumulative IPC: 0.681787 (Simulation time: 0 hr 51 min 15 sec) 
Heartbeat CPU 0 instructions: 90000000 cycles: 74816661 heartbeat IPC: 0.681507 cumulative IPC: 0.681717 (Simulation time: 1 hr 0 min 2 sec) 
Heartbeat CPU 0 instructions: 100000001 cycles: 89465403 heartbeat IPC: 0.682653 cumulative IPC: 0.681904 (Simulation time: 1 hr 9 min 40 sec) 
Heartbeat CPU 0 instructions: 110000000 cycles: 104114741 heartbeat IPC: 0.682625 cumulative IPC: 0.682024 (Simulation time: 1 hr 17 min 5 sec) 
Heartbeat CPU 0 instructions: 120000001 cycles: 118764437 heartbeat IPC: 0.682608 cumulative IPC: 0.682107 (Simulation time: 1 hr 23 min 53 sec) 
Heartbeat CPU 0 instructions: 130000003 cycles: 133398204 heartbeat IPC: 0.683351 cumulative IPC: 0.682263 (Simulation time: 1 hr 31 min 12 sec) 
Heartbeat CPU 0 instructions: 140000001 cycles: 148028417 heartbeat IPC: 0.683517 cumulative IPC: 0.682402 (Simulation time: 1 hr 36 min 26 sec) 
Heartbeat CPU 0 instructions: 150000002 cycles: 162663472 heartbeat IPC: 0.683291 cumulative IPC: 0.682491 (Simulation time: 1 hr 41 min 53 sec) 
Heartbeat CPU 0 instructions: 160000000 cycles: 177307701 heartbeat IPC: 0.682863 cumulative IPC: 0.682524 (Simulation time: 1 hr 51 min 5 sec) 
Heartbeat CPU 0 instructions: 170000003 cycles: 191960630 heartbeat IPC: 0.682458 cumulative IPC: 0.682519 (Simulation time: 1 hr 56 min 38 sec) 
Heartbeat CPU 0 instructions: 180000002 cycles: 206599964 heartbeat IPC: 0.683091 cumulative IPC: 0.682563 (Simulation time: 2 hr 1 min 29 sec) 
Heartbeat CPU 0 instructions: 190000000 cycles: 221242109 heartbeat IPC: 0.68296 cumulative IPC: 0.682591 (Simulation time: 2 hr 6 min 26 sec) 
Heartbeat CPU 0 instructions: 200000002 cycles: 235879376 heartbeat IPC: 0.683188 cumulative IPC: 0.682631 (Simulation time: 2 hr 13 min 31 sec) 
Heartbeat CPU 0 instructions: 210000003 cycles: 250513553 heartbeat IPC: 0.683332 cumulative IPC: 0.682675 (Simulation time: 2 hr 22 min 51 sec) 
Heartbeat CPU 0 instructions: 220000000 cycles: 265154414 heartbeat IPC: 0.68302 cumulative IPC: 0.682695 (Simulation time: 2 hr 31 min 13 sec) 
Heartbeat CPU 0 instructions: 230000000 cycles: 279794621 heartbeat IPC: 0.68305 cumulative IPC: 0.682715 (Simulation time: 2 hr 38 min 44 sec) 
Heartbeat CPU 0 instructions: 240000002 cycles: 294435935 heartbeat IPC: 0.682999 cumulative IPC: 0.68273 (Simulation time: 2 hr 46 min 24 sec) 
Heartbeat CPU 0 instructions: 250000003 cycles: 309089825 heartbeat IPC: 0.682413 cumulative IPC: 0.682714 (Simulation time: 2 hr 53 min 52 sec) 
Finished CPU 0 instructions: 200000002 cycles: 292948522 cumulative IPC: 0.682714 (Simulation time: 2 hr 53 min 52 sec) 

ChampSim completed all CPUs

Region of Interest Statistics

CPU 0 cumulative IPC: 0.682714 instructions: 200000002 cycles: 292948522
ITLB TOTAL     ACCESS:   28741306  HIT:   28741306  MISS:          0  HIT %:        100  MISS %:          0   MPKI: 0
ITLB LOAD TRANSLATION ACCESS:   28741306  HIT:   28741306  MISS:          0  HIT %:        100  MISS %:          0   MPKI: 0
ITLB PREFETCH  REQUESTED:          0  ISSUED:          0  USEFUL:          0  USELESS:          0
ITLB USEFUL LOAD PREFETCHES:          0 PREFETCH ISSUED TO LOWER LEVEL:          0  ACCURACY: -nan
ITLB TIMELY PREFETCHES:          0 LATE PREFETCHES: 0 DROPPED PREFETCHES: 0
ITLB PREFETCHES SAME FILL-ORIGIN LEVEL: 0 DIFFERENT FILL-ORIGIN LEVEL: 0
ITLB AVERAGE MISS LATENCY: -nan cycles
ITLB RQ	ACCESS:   35933530	FORWARD:          0	MERGED:    7192225	TO_CACHE:   28741305

DTLB TOTAL     ACCESS:   49790199  HIT:   49720887  MISS:      69312  HIT %:    99.8608  MISS %:   0.139208   MPKI: 0.34656
DTLB LOAD TRANSLATION ACCESS:   49790199  HIT:   49720887  MISS:      69312  HIT %:    99.8608  MISS %:   0.139208   MPKI: 0.34656
DTLB PREFETCH  REQUESTED:          0  ISSUED:          0  USEFUL:          0  USELESS:          0
DTLB USEFUL LOAD PREFETCHES:          0 PREFETCH ISSUED TO LOWER LEVEL:          0  ACCURACY: -nan
DTLB TIMELY PREFETCHES:          0 LATE PREFETCHES: 0 DROPPED PREFETCHES: 0
DTLB PREFETCHES SAME FILL-ORIGIN LEVEL: 0 DIFFERENT FILL-ORIGIN LEVEL: 0
DTLB AVERAGE MISS LATENCY: 11.9757 cycles
DTLB RQ	ACCESS:   64967535	FORWARD:          0	MERGED:   15176386	TO_CACHE:   49791149

STLB TOTAL     ACCESS:    5448268  HIT:    5446883  MISS:       1385  HIT %:    99.9746  MISS %:  0.0254209   MPKI: 0.006925
STLB LOAD TRANSLATION ACCESS:      69312  HIT:      67927  MISS:       1385  HIT %:    98.0018  MISS %:    1.99821   MPKI: 0.006925
STLB TRANSLATION FROM L1D PREFETCHER ACCESS:    5378956  HIT:    5378956  MISS:          0  HIT %:        100  MISS %:          0   MPKI: 0
STLB PREFETCH  REQUESTED:          0  ISSUED:          0  USEFUL:          0  USELESS:          0
STLB USEFUL LOAD PREFETCHES:          0 PREFETCH ISSUED TO LOWER LEVEL:          0  ACCURACY: -nan
STLB TIMELY PREFETCHES:          0 LATE PREFETCHES: 0 DROPPED PREFETCHES: 195392
STLB PREFETCHES SAME FILL-ORIGIN LEVEL: 0 DIFFERENT FILL-ORIGIN LEVEL: 0
STLB AVERAGE MISS LATENCY: 144.16 cycles
STLB RQ	ACCESS:   25112367	FORWARD:          0	MERGED:   19468699	TO_CACHE:    5643668

STLB Hit, L1D data hit: 0
STLB Hit, L2C data hit: 0
STLB Hit, LLC data hit: 0
STLB Hit, LLC data miss: 0
STLB STLB hints to L2: 0
L1D TOTAL     ACCESS:   79633529  HIT:   78552824  MISS:    1080705  HIT %:    98.6429  MISS %:     1.3571   MPKI: 5.40352
L1D LOAD      ACCESS:   42814649  HIT:   42551202  MISS:     263447  HIT %:    99.3847  MISS %:    0.61532   MPKI: 1.31723
L1D RFO       ACCESS:   22116355  HIT:   22115055  MISS:       1300  HIT %:    99.9941  MISS %:   0.005878   MPKI: 0.0065
L1D PREFETCH  ACCESS:   14702525  HIT:   13886567  MISS:     815958  HIT %:    94.4502  MISS %:    5.54978   MPKI: 4.07979
L1D PREFETCH  REQUESTED:   55169459  ISSUED:   50333259  USEFUL:     645600  USELESS:     170394
L1D USEFUL LOAD PREFETCHES:     645600 PREFETCH ISSUED TO LOWER LEVEL:   10681567  ACCURACY: 6.04406
L1D TIMELY PREFETCHES:     645600 LATE PREFETCHES: 0 DROPPED PREFETCHES: 464122
L1D PREFETCHES SAME FILL-ORIGIN LEVEL: 815958 DIFFERENT FILL-ORIGIN LEVEL: 9865609
L1D AVERAGE MISS LATENCY: 17.6188 cycles
L1D RQ	ACCESS:   53418496	FORWARD:          0	MERGED:    9829419	TO_CACHE:   42848329
L1D WQ	ACCESS:   22673120	FORWARD:     740748	MERGED:     553914	TO_CACHE:   22119206
L1D PQ	ACCESS:   25290204	FORWARD:          0	MERGED:     247149	TO_CACHE:   25043055

L1D UNIQUE REGIONS ACCESSED: 0
L1D REGIONS CONFLICTS: 0
L1D Cross Page Prefetch Requests: 2645277
L1D Same Page Prefetch Requests: 28497334
L1D ROI Sum of L1D PQ occupancy: 396633022
L1D PREFETCHES PUSHED FROM L2C: 0
L1I TOTAL     ACCESS:   35933529  HIT:   35933529  MISS:          0  HIT %:        100  MISS %:          0   MPKI: 0
L1I LOAD      ACCESS:   35933529  HIT:   35933529  MISS:          0  HIT %:        100  MISS %:          0   MPKI: 0
L1I PREFETCH  REQUESTED:          0  ISSUED:          0  USEFUL:          0  USELESS:          0
L1I USEFUL LOAD PREFETCHES:          0 PREFETCH ISSUED TO LOWER LEVEL:          0  ACCURACY: -nan
L1I TIMELY PREFETCHES:          0 LATE PREFETCHES: 0 DROPPED PREFETCHES: 0
L1I PREFETCHES SAME FILL-ORIGIN LEVEL: 0 DIFFERENT FILL-ORIGIN LEVEL: 0
L1I AVERAGE MISS LATENCY: -nan cycles
L1I RQ	ACCESS:   50858943	FORWARD:          0	MERGED:   14925413	TO_CACHE:   35933530

BTB TOTAL     ACCESS:   14896356  HIT:   13790383  MISS:    1105973  HIT %:    92.5755  MISS %:    7.42445   MPKI: 5.52986
BTB BRANCH_DIRECT_JUMP	ACCESS:    1660136  HIT:    1660105  MISS:         31
BTB BRANCH_INDIRECT	ACCESS:         60  HIT:         59  MISS:          1
BTB BRANCH_CONDITIONAL	ACCESS:    8813407  HIT:    8813314  MISS:         93
BTB BRANCH_DIRECT_CALL	ACCESS:    2211376  HIT:    2211332  MISS:         44
BTB BRANCH_INDIRECT_CALL	ACCESS:          0  HIT:          0  MISS:          0
BTB BRANCH_RETURN	ACCESS:    2211377  HIT:    1105573  MISS:    1105804
BTB BRANCH_OTHER ACCESS:          0  HIT:          0  MISS:          0

L2C TOTAL     ACCESS:   11445699  HIT:   11394382  MISS:      51317  HIT %:    99.5516  MISS %:   0.448352   MPKI: 0.256585
L2C LOAD      ACCESS:     263447  HIT:     260350  MISS:       3097  HIT %:    98.8244  MISS %:    1.17557   MPKI: 0.015485
L2C DATA LOAD MPKI: 0.015485
L2C INSTRUCTION LOAD MPKI: 0
L2C RFO       ACCESS:       1300  HIT:       1210  MISS:         90  HIT %:    93.0769  MISS %:    6.92308   MPKI: 0.00045
L2C PREFETCH  ACCESS:   10681505  HIT:   10633855  MISS:      47650  HIT %:    99.5539  MISS %:   0.446098   MPKI: 0.23825
L2C DATA PREFETCH MPKI: 0.23825
L2C INSTRUCTION PREFETCH MPKI: 0
L2C WRITEBACK ACCESS:     296835  HIT:     296825  MISS:         10  HIT %:    99.9966  MISS %: 0.00336887   MPKI: 5e-05
L2C LOAD TRANSLATION ACCESS:       1401  HIT:       1094  MISS:        307  HIT %:    78.0871  MISS %:    21.9129   MPKI: 0.001535
L2C TRANSLATION FROM L1D PREFETCHER ACCESS:     201211  HIT:     201048  MISS:        163  HIT %:     99.919  MISS %:  0.0810095   MPKI: 0.000815
L2C PREFETCH  REQUESTED:          0  ISSUED:          0  USEFUL:       2617  USELESS:      45992
L2C USEFUL LOAD PREFETCHES:       2617 PREFETCH ISSUED TO LOWER LEVEL:      47650  ACCURACY: 5.49213
L2C TIMELY PREFETCHES:       2617 LATE PREFETCHES: 0 DROPPED PREFETCHES: 0
L2C PREFETCHES SAME FILL-ORIGIN LEVEL: 30087 DIFFERENT FILL-ORIGIN LEVEL: 0
L2C AVERAGE MISS LATENCY: 116.988 cycles
L2C RQ	ACCESS:     467359	FORWARD:          0	MERGED:          0	TO_CACHE:     467359
L2C WQ	ACCESS:     296835	FORWARD:         27	MERGED:          0	TO_CACHE:     296835
L2C PQ	ACCESS:   10681567	FORWARD:          0	MERGED:          1	TO_CACHE:   10681539

L2C Instructions Evicting Data 0
L2C Translations Evicting Data 467
L2C Data Evicting Data 50294
L2C Instructions Evicting Instructions 0
L2C Translations Evicting Instructions 0
L2C Data Evicting Instructions 0
L2C Instructions Evicting Translations 0
L2C Translations Evicting Translations 3
L2C Data Evicting Translations 543
L2C Dense regions hint from L2: 0
PSCL5 TOTAL     ACCESS:     196777  HIT:     196777  MISS:          0  HIT %:        100  MISS %:          0   MPKI: 0
PSCL5 LOAD TRANSLATION ACCESS:       1385  HIT:       1385  MISS:          0  HIT %:        100  MISS %:          0   MPKI: 0
PSCL5 TRANSLATION FROM L1D PREFETCHER ACCESS:     195392  HIT:     195392  MISS:          0  HIT %:        100  MISS %:          0   MPKI: 0
PSCL5 PREFETCH  REQUESTED:          0  ISSUED:          0  USEFUL:          0  USELESS:          0
PSCL5 USEFUL LOAD PREFETCHES:          0 PREFETCH ISSUED TO LOWER LEVEL:          0  ACCURACY: -nan
PSCL5 TIMELY PREFETCHES:          0 LATE PREFETCHES: 0 DROPPED PREFETCHES: 0
PSCL5 PREFETCHES SAME FILL-ORIGIN LEVEL: 0 DIFFERENT FILL-ORIGIN LEVEL: 0

PSCL4 TOTAL     ACCESS:     196777  HIT:     196777  MISS:          0  HIT %:        100  MISS %:          0   MPKI: 0
PSCL4 LOAD TRANSLATION ACCESS:       1385  HIT:       1385  MISS:          0  HIT %:        100  MISS %:          0   MPKI: 0
PSCL4 TRANSLATION FROM L1D PREFETCHER ACCESS:     195392  HIT:     195392  MISS:          0  HIT %:        100  MISS %:          0   MPKI: 0
PSCL4 PREFETCH  REQUESTED:          0  ISSUED:          0  USEFUL:          0  USELESS:          0
PSCL4 USEFUL LOAD PREFETCHES:          0 PREFETCH ISSUED TO LOWER LEVEL:          0  ACCURACY: -nan
PSCL4 TIMELY PREFETCHES:          0 LATE PREFETCHES: 0 DROPPED PREFETCHES: 0
PSCL4 PREFETCHES SAME FILL-ORIGIN LEVEL: 0 DIFFERENT FILL-ORIGIN LEVEL: 0

PSCL3 TOTAL     ACCESS:     196777  HIT:     196777  MISS:          0  HIT %:        100  MISS %:          0   MPKI: 0
PSCL3 LOAD TRANSLATION ACCESS:       1385  HIT:       1385  MISS:          0  HIT %:        100  MISS %:          0   MPKI: 0
PSCL3 TRANSLATION FROM L1D PREFETCHER ACCESS:     195392  HIT:     195392  MISS:          0  HIT %:        100  MISS %:          0   MPKI: 0
PSCL3 PREFETCH  REQUESTED:          0  ISSUED:          0  USEFUL:          0  USELESS:          0
PSCL3 USEFUL LOAD PREFETCHES:          0 PREFETCH ISSUED TO LOWER LEVEL:          0  ACCURACY: -nan
PSCL3 TIMELY PREFETCHES:          0 LATE PREFETCHES: 0 DROPPED PREFETCHES: 0
PSCL3 PREFETCHES SAME FILL-ORIGIN LEVEL: 0 DIFFERENT FILL-ORIGIN LEVEL: 0

PSCL2 TOTAL     ACCESS:     190184  HIT:     190158  MISS:         26  HIT %:    99.9863  MISS %:   0.013671   MPKI: 0.00013
PSCL2 LOAD TRANSLATION ACCESS:       1385  HIT:       1359  MISS:         26  HIT %:    98.1227  MISS %:    1.87726   MPKI: 0.00013
PSCL2 TRANSLATION FROM L1D PREFETCHER ACCESS:     188799  HIT:     188799  MISS:          0  HIT %:        100  MISS %:          0   MPKI: 0
PSCL2 PREFETCH  REQUESTED:          0  ISSUED:          0  USEFUL:          0  USELESS:          0
PSCL2 USEFUL LOAD PREFETCHES:          0 PREFETCH ISSUED TO LOWER LEVEL:          0  ACCURACY: -nan
PSCL2 TIMELY PREFETCHES:          0 LATE PREFETCHES: 0 DROPPED PREFETCHES: 0
PSCL2 PREFETCHES SAME FILL-ORIGIN LEVEL: 0 DIFFERENT FILL-ORIGIN LEVEL: 0

LLC TOTAL     ACCESS:      52056  HIT:       2880  MISS:      49176  HIT %:     5.5325  MISS %:    94.4675   MPKI: 0.24588
LLC LOAD      ACCESS:       3097  HIT:        211  MISS:       2886  HIT %:    6.81304  MISS %:     93.187   MPKI: 0.01443
LLC RFO       ACCESS:         90  HIT:         78  MISS:         12  HIT %:    86.6667  MISS %:    13.3333   MPKI: 6e-05
LLC PREFETCH  ACCESS:      47650  HIT:       1895  MISS:      45755  HIT %:    3.97692  MISS %:    96.0231   MPKI: 0.228775
LLC WRITEBACK ACCESS:        749  HIT:        528  MISS:        221  HIT %:     70.494  MISS %:     29.506   MPKI: 0.001105
LLC LOAD TRANSLATION ACCESS:        307  HIT:        120  MISS:        187  HIT %:    39.0879  MISS %:    60.9121   MPKI: 0.000935
LLC TRANSLATION FROM L1D PREFETCHER ACCESS:        163  HIT:         48  MISS:        115  HIT %:    29.4479  MISS %:    70.5521   MPKI: 0.000575
LLC PREFETCH  REQUESTED:          0  ISSUED:          0  USEFUL:        119  USELESS:      28439
LLC USEFUL LOAD PREFETCHES:        119 PREFETCH ISSUED TO LOWER LEVEL:      45755  ACCURACY: 0.260081
LLC TIMELY PREFETCHES:        119 LATE PREFETCHES: 0 DROPPED PREFETCHES: 0
LLC PREFETCHES SAME FILL-ORIGIN LEVEL: 0 DIFFERENT FILL-ORIGIN LEVEL: 0
LLC AVERAGE MISS LATENCY: 90.6318 cycles
LLC RQ	ACCESS:       3657	FORWARD:          0	MERGED:          0	TO_CACHE:       3657
LLC WQ	ACCESS:        749	FORWARD:          0	MERGED:          0	TO_CACHE:        749
LLC PQ	ACCESS:      47650	FORWARD:          0	MERGED:          0	TO_CACHE:      47650

LLC Dense regions hint to LLC: 0

RAW hits: 4032820
Loads Generated: 57451317
Loads sent to L1D: 53418496
Stores Generated: 22673113
Stores sent to L1D: 22673120
Major fault: 0 Minor fault: 1933
Allocated PAGES: 1933

DRAM Statistics
 CHANNEL 0
 RQ ROW_BUFFER_HIT:      42022  ROW_BUFFER_MISS:       6933
 DBUS_CONGESTED:          0
 WQ ROW_BUFFER_HIT:          1  ROW_BUFFER_MISS:        175  FULL:          0

 AVG_CONGESTED_CYCLE: -
 All warmup complete: 2
Channel 0 Bank busy for read cycles: 0
Channel 0 Bank busy for write cycles: 0
Channel 0
Rank 0
0banks busy for read cycles: 290863958
0banks busy for write cycles: 157
1banks busy for read cycles: 1468449
1banks busy for write cycles: 21534
2banks busy for read cycles: 342384
2banks busy for write cycles: 1775
3banks busy for read cycles: 138175
3banks busy for write cycles: 350
4banks busy for read cycles: 33233
4banks busy for write cycles: 131
5banks busy for read cycles: 38989
5banks busy for write cycles: 0
6banks busy for read cycles: 32921
6banks busy for write cycles: 0
7banks busy for read cycles: 3817
7banks busy for write cycles: 0
8banks busy for read cycles: 2650
8banks busy for write cycles: 0

CPU 0 Branch Prediction Accuracy: 99.9779% MPKI: 0.014655 Average ROB Occupancy at Mispredict: 39.8908
Branch types
NOT_BRANCH: 180640190 90.3201%
BRANCH_DIRECT_JUMP: 1660136 0.830068%
BRANCH_INDIRECT: 60 3e-05%
BRANCH_CONDITIONAL: 13276553 6.63828%
BRANCH_DIRECT_CALL: 2211376 1.10569%
BRANCH_INDIRECT_CALL: 0 0%
BRANCH_RETURN: 2211377 1.10569%
BRANCH_OTHER: 0 0%

DRAM PAGES: 1048576
Allocated PAGES: 1933
