
*** ChampSim Multicore Out-of-Order Simulator ***

Warmup Instructions: 50000000
Simulation Instructions: 200000000
Number of CPUs: 1
LLC sets: 2048
LLC ways: 16
Off-chip DRAM Size: 4096 MB Channels: 1 Width: 64-bit Data Rate: 6400 MT/s
argv[0]: ./ChampSim/Berti/bin/multiperspective_perceptron8kb-no-vberti-no-no-no-no-no-lru-lru-lru-srrip-drrip-lru-lru-lru-1core-no
argv[1]: -warmup_instructions
argv[2]: 50000000
argv[3]: -simulation_instructions
argv[4]: 200000000
argv[5]: -traces
argv[6]: traces/spec2k17_ten/644.nab_s-9322B.champsimtrace.xz
CPU 0 runs traces/spec2k17_ten/644.nab_s-9322B.champsimtrace.xz
.xz
CPU 0 Multiperspective perceptron branch predictor
BTB has LRU replacement policy
ITLB has LRU replacement policy
DTLB has LRU replacement policy
STLB has LRU replacement policy
L1I has LRU replacement policy
History Sets: 8
History Ways: 16
BERTI Size: 16
BERTI Stride Size: 16
L1D has LRU replacement policy
Initialize SRRIP state for L2C
Initialize DRRIP state for LLC
Heartbeat CPU 0 instructions: 10000002 cycles: 3462856 heartbeat IPC: 2.88779 cumulative IPC: 2.88779 (Simulation time: 0 hr 9 min 45 sec) 
Heartbeat CPU 0 instructions: 20000003 cycles: 6926342 heartbeat IPC: 2.88726 cumulative IPC: 2.88753 (Simulation time: 0 hr 21 min 9 sec) 
Heartbeat CPU 0 instructions: 30000002 cycles: 10387022 heartbeat IPC: 2.88961 cumulative IPC: 2.88822 (Simulation time: 0 hr 29 min 43 sec) 
Heartbeat CPU 0 instructions: 40000001 cycles: 13847179 heartbeat IPC: 2.89004 cumulative IPC: 2.88867 (Simulation time: 0 hr 36 min 53 sec) 
Heartbeat CPU 0 instructions: 50000003 cycles: 17309047 heartbeat IPC: 2.88861 cumulative IPC: 2.88866 (Simulation time: 0 hr 45 min 34 sec) 

Warmup complete CPU 0 instructions: 50000003 cycles: 17309047 (Simulation time: 0 hr 45 min 34 sec) 

Heartbeat CPU 0 instructions: 60000000 cycles: 32595248 heartbeat IPC: 0.654185 cumulative IPC: 0.654185 (Simulation time: 0 hr 57 min 33 sec) 
Heartbeat CPU 0 instructions: 70000000 cycles: 47826639 heartbeat IPC: 0.656539 cumulative IPC: 0.65536 (Simulation time: 1 hr 9 min 54 sec) 
Heartbeat CPU 0 instructions: 80000000 cycles: 63064207 heartbeat IPC: 0.656273 cumulative IPC: 0.655664 (Simulation time: 1 hr 19 min 43 sec) 
Heartbeat CPU 0 instructions: 90000000 cycles: 78331814 heartbeat IPC: 0.654981 cumulative IPC: 0.655493 (Simulation time: 1 hr 29 min 48 sec) 
Heartbeat CPU 0 instructions: 100000002 cycles: 93622958 heartbeat IPC: 0.653973 cumulative IPC: 0.655189 (Simulation time: 1 hr 41 min 24 sec) 
Heartbeat CPU 0 instructions: 110000000 cycles: 108870268 heartbeat IPC: 0.655853 cumulative IPC: 0.655299 (Simulation time: 1 hr 49 min 53 sec) 
Heartbeat CPU 0 instructions: 120000000 cycles: 124147875 heartbeat IPC: 0.654553 cumulative IPC: 0.655192 (Simulation time: 1 hr 59 min 45 sec) 
Heartbeat CPU 0 instructions: 130000000 cycles: 139405571 heartbeat IPC: 0.655407 cumulative IPC: 0.655219 (Simulation time: 2 hr 9 min 44 sec) 
Heartbeat CPU 0 instructions: 140000000 cycles: 154632125 heartbeat IPC: 0.656747 cumulative IPC: 0.655389 (Simulation time: 2 hr 19 min 22 sec) 
Heartbeat CPU 0 instructions: 150000001 cycles: 169947446 heartbeat IPC: 0.652941 cumulative IPC: 0.655143 (Simulation time: 2 hr 30 min 10 sec) 
Heartbeat CPU 0 instructions: 160000001 cycles: 185246010 heartbeat IPC: 0.653656 cumulative IPC: 0.655008 (Simulation time: 2 hr 40 min 31 sec) 
Heartbeat CPU 0 instructions: 170000003 cycles: 200511597 heartbeat IPC: 0.655068 cumulative IPC: 0.655013 (Simulation time: 2 hr 51 min 27 sec) 
Heartbeat CPU 0 instructions: 180000001 cycles: 215818764 heartbeat IPC: 0.653289 cumulative IPC: 0.65488 (Simulation time: 3 hr 0 min 30 sec) 
Heartbeat CPU 0 instructions: 190000001 cycles: 231101646 heartbeat IPC: 0.654327 cumulative IPC: 0.65484 (Simulation time: 3 hr 9 min 2 sec) 
Heartbeat CPU 0 instructions: 200000001 cycles: 246399088 heartbeat IPC: 0.653704 cumulative IPC: 0.654764 (Simulation time: 3 hr 15 min 24 sec) 
Heartbeat CPU 0 instructions: 210000001 cycles: 261649757 heartbeat IPC: 0.655709 cumulative IPC: 0.654823 (Simulation time: 3 hr 22 min 5 sec) 
Heartbeat CPU 0 instructions: 220000000 cycles: 276907820 heartbeat IPC: 0.655391 cumulative IPC: 0.654857 (Simulation time: 3 hr 27 min 28 sec) 
Heartbeat CPU 0 instructions: 230000000 cycles: 292120191 heartbeat IPC: 0.65736 cumulative IPC: 0.654995 (Simulation time: 3 hr 32 min 46 sec) 
Heartbeat CPU 0 instructions: 240000002 cycles: 307311143 heartbeat IPC: 0.658287 cumulative IPC: 0.655168 (Simulation time: 3 hr 37 min 20 sec) 
Heartbeat CPU 0 instructions: 250000000 cycles: 322575663 heartbeat IPC: 0.655114 cumulative IPC: 0.655165 (Simulation time: 3 hr 40 min 24 sec) 
Finished CPU 0 instructions: 200000000 cycles: 305266620 cumulative IPC: 0.655165 (Simulation time: 3 hr 40 min 24 sec) 

ChampSim completed all CPUs

Region of Interest Statistics

CPU 0 cumulative IPC: 0.655165 instructions: 200000000 cycles: 305266620
ITLB TOTAL     ACCESS:   33639977  HIT:   33639977  MISS:          0  HIT %:        100  MISS %:          0   MPKI: 0
ITLB LOAD TRANSLATION ACCESS:   33639977  HIT:   33639977  MISS:          0  HIT %:        100  MISS %:          0   MPKI: 0
ITLB PREFETCH  REQUESTED:          0  ISSUED:          0  USEFUL:          0  USELESS:          0
ITLB USEFUL LOAD PREFETCHES:          0 PREFETCH ISSUED TO LOWER LEVEL:          0  ACCURACY: -nan
ITLB TIMELY PREFETCHES:          0 LATE PREFETCHES: 0 DROPPED PREFETCHES: 0
ITLB PREFETCHES SAME FILL-ORIGIN LEVEL: 0 DIFFERENT FILL-ORIGIN LEVEL: 0
ITLB AVERAGE MISS LATENCY: -nan cycles
ITLB RQ	ACCESS:   37988600	FORWARD:          0	MERGED:    4348624	TO_CACHE:   33639976

DTLB TOTAL     ACCESS:   46364634  HIT:   46286050  MISS:      78584  HIT %:    99.8305  MISS %:   0.169491   MPKI: 0.39292
DTLB LOAD TRANSLATION ACCESS:   46364634  HIT:   46286050  MISS:      78584  HIT %:    99.8305  MISS %:   0.169491   MPKI: 0.39292
DTLB PREFETCH  REQUESTED:          0  ISSUED:          0  USEFUL:          0  USELESS:          0
DTLB USEFUL LOAD PREFETCHES:          0 PREFETCH ISSUED TO LOWER LEVEL:          0  ACCURACY: -nan
DTLB TIMELY PREFETCHES:          0 LATE PREFETCHES: 0 DROPPED PREFETCHES: 0
DTLB PREFETCHES SAME FILL-ORIGIN LEVEL: 0 DIFFERENT FILL-ORIGIN LEVEL: 0
DTLB AVERAGE MISS LATENCY: 13.3237 cycles
DTLB RQ	ACCESS:   55636013	FORWARD:          0	MERGED:    9269571	TO_CACHE:   46366442

STLB TOTAL     ACCESS:   10827235  HIT:   10824748  MISS:       2487  HIT %:     99.977  MISS %:  0.0229699   MPKI: 0.012435
STLB LOAD TRANSLATION ACCESS:      78584  HIT:      76106  MISS:       2478  HIT %:    96.8467  MISS %:    3.15331   MPKI: 0.01239
STLB TRANSLATION FROM L1D PREFETCHER ACCESS:   10748651  HIT:   10748642  MISS:          9  HIT %:    99.9999  MISS %: 8.37314e-05   MPKI: 4.5e-05
STLB PREFETCH  REQUESTED:          0  ISSUED:          0  USEFUL:          9  USELESS:          0
STLB USEFUL LOAD PREFETCHES:          9 PREFETCH ISSUED TO LOWER LEVEL:          0  ACCURACY: inf
STLB TIMELY PREFETCHES:          9 LATE PREFETCHES: 14 DROPPED PREFETCHES: 216341
STLB PREFETCHES SAME FILL-ORIGIN LEVEL: 0 DIFFERENT FILL-ORIGIN LEVEL: 0
STLB AVERAGE MISS LATENCY: 136.258 cycles
STLB RQ	ACCESS:   49676626	FORWARD:          0	MERGED:   38632602	TO_CACHE:   11044024

STLB Hit, L1D data hit: 0
STLB Hit, L2C data hit: 0
STLB Hit, LLC data hit: 0
STLB Hit, LLC data miss: 0
STLB STLB hints to L2: 0
L1D TOTAL     ACCESS:   88503719  HIT:   86311274  MISS:    2192445  HIT %:    97.5228  MISS %:    2.47723   MPKI: 10.9622
L1D LOAD      ACCESS:   52262452  HIT:   51681382  MISS:     581070  HIT %:    98.8882  MISS %:    1.11183   MPKI: 2.90535
L1D RFO       ACCESS:    3344474  HIT:    3343569  MISS:        905  HIT %:    99.9729  MISS %:  0.0270596   MPKI: 0.004525
L1D PREFETCH  ACCESS:   32896793  HIT:   31286323  MISS:    1610470  HIT %:    95.1045  MISS %:    4.89552   MPKI: 8.05235
L1D PREFETCH  REQUESTED:  103964503  ISSUED:   99972975  USEFUL:    1211130  USELESS:     399410
L1D USEFUL LOAD PREFETCHES:    1211130 PREFETCH ISSUED TO LOWER LEVEL:   17864137  ACCURACY: 6.77967
L1D TIMELY PREFETCHES:    1211130 LATE PREFETCHES: 231 DROPPED PREFETCHES: 426786
L1D PREFETCHES SAME FILL-ORIGIN LEVEL: 1610701 DIFFERENT FILL-ORIGIN LEVEL: 16253436
L1D AVERAGE MISS LATENCY: 18.0163 cycles
L1D RQ	ACCESS:   60700238	FORWARD:          0	MERGED:    8404129	TO_CACHE:   52291539
L1D WQ	ACCESS:    3646099	FORWARD:       4570	MERGED:     301625	TO_CACHE:    3344474
L1D PQ	ACCESS:   50374933	FORWARD:          0	MERGED:     776891	TO_CACHE:   49598042

L1D UNIQUE REGIONS ACCESSED: 0
L1D REGIONS CONFLICTS: 0
L1D Cross Page Prefetch Requests: 5259504
L1D Same Page Prefetch Requests: 55896519
L1D ROI Sum of L1D PQ occupancy: 757972506
L1D PREFETCHES PUSHED FROM L2C: 0
L1I TOTAL     ACCESS:   37988601  HIT:   37988601  MISS:          0  HIT %:        100  MISS %:          0   MPKI: 0
L1I LOAD      ACCESS:   37988601  HIT:   37988601  MISS:          0  HIT %:        100  MISS %:          0   MPKI: 0
L1I PREFETCH  REQUESTED:          0  ISSUED:          0  USEFUL:          0  USELESS:          0
L1I USEFUL LOAD PREFETCHES:          0 PREFETCH ISSUED TO LOWER LEVEL:          0  ACCURACY: -nan
L1I TIMELY PREFETCHES:          0 LATE PREFETCHES: 0 DROPPED PREFETCHES: 0
L1I PREFETCHES SAME FILL-ORIGIN LEVEL: 0 DIFFERENT FILL-ORIGIN LEVEL: 0
L1I AVERAGE MISS LATENCY: -nan cycles
L1I RQ	ACCESS:   57339199	FORWARD:          0	MERGED:   19350599	TO_CACHE:   37988600

BTB TOTAL     ACCESS:   24544770  HIT:   24536493  MISS:       8277  HIT %:    99.9663  MISS %:  0.0337221   MPKI: 0.041385
BTB BRANCH_DIRECT_JUMP	ACCESS:    4173606  HIT:    4173581  MISS:         25
BTB BRANCH_INDIRECT	ACCESS:          0  HIT:          0  MISS:          0
BTB BRANCH_CONDITIONAL	ACCESS:   19704216  HIT:   19704176  MISS:         40
BTB BRANCH_DIRECT_CALL	ACCESS:     333474  HIT:     333471  MISS:          3
BTB BRANCH_INDIRECT_CALL	ACCESS:          0  HIT:          0  MISS:          0
BTB BRANCH_RETURN	ACCESS:     333474  HIT:     325265  MISS:       8209
BTB BRANCH_OTHER ACCESS:          0  HIT:          0  MISS:          0

L2C TOTAL     ACCESS:   18645969  HIT:   18452577  MISS:     193392  HIT %:    98.9628  MISS %:    1.03718   MPKI: 0.96696
L2C LOAD      ACCESS:     580839  HIT:     572133  MISS:       8706  HIT %:    98.5011  MISS %:    1.49887   MPKI: 0.04353
L2C DATA LOAD MPKI: 0.04353
L2C INSTRUCTION LOAD MPKI: 0
L2C RFO       ACCESS:        905  HIT:        791  MISS:        114  HIT %:    87.4033  MISS %:    12.5967   MPKI: 0.00057
L2C PREFETCH  ACCESS:   17827709  HIT:   17644271  MISS:     183438  HIT %:    98.9711  MISS %:    1.02895   MPKI: 0.91719
L2C DATA PREFETCH MPKI: 0.91719
L2C INSTRUCTION PREFETCH MPKI: 0
L2C WRITEBACK ACCESS:        905  HIT:        903  MISS:          2  HIT %:     99.779  MISS %:   0.220994   MPKI: 1e-05
L2C LOAD TRANSLATION ACCESS:       2483  HIT:       2059  MISS:        424  HIT %:    82.9239  MISS %:    17.0761   MPKI: 0.00212
L2C TRANSLATION FROM L1D PREFETCHER ACCESS:     233128  HIT:     232420  MISS:        708  HIT %:    99.6963  MISS %:   0.303696   MPKI: 0.00354
L2C PREFETCH  REQUESTED:          0  ISSUED:          0  USEFUL:      14552  USELESS:     169903
L2C USEFUL LOAD PREFETCHES:      14552 PREFETCH ISSUED TO LOWER LEVEL:     183445  ACCURACY: 7.93262
L2C TIMELY PREFETCHES:      14552 LATE PREFETCHES: 7 DROPPED PREFETCHES: 0
L2C PREFETCHES SAME FILL-ORIGIN LEVEL: 134692 DIFFERENT FILL-ORIGIN LEVEL: 0
L2C AVERAGE MISS LATENCY: 97.8985 cycles
L2C RQ	ACCESS:     817355	FORWARD:          0	MERGED:          0	TO_CACHE:     817355
L2C WQ	ACCESS:        905	FORWARD:          0	MERGED:          0	TO_CACHE:        905
L2C PQ	ACCESS:   17864137	FORWARD:          0	MERGED:         44	TO_CACHE:   17864093

L2C Instructions Evicting Data 0
L2C Translations Evicting Data 1128
L2C Data Evicting Data 191098
L2C Instructions Evicting Instructions 0
L2C Translations Evicting Instructions 0
L2C Data Evicting Instructions 0
L2C Instructions Evicting Translations 0
L2C Translations Evicting Translations 4
L2C Data Evicting Translations 1160
L2C Dense regions hint from L2: 0
PSCL5 TOTAL     ACCESS:     218842  HIT:     218842  MISS:          0  HIT %:        100  MISS %:          0   MPKI: 0
PSCL5 LOAD TRANSLATION ACCESS:       2478  HIT:       2478  MISS:          0  HIT %:        100  MISS %:          0   MPKI: 0
PSCL5 TRANSLATION FROM L1D PREFETCHER ACCESS:     216364  HIT:     216364  MISS:          0  HIT %:        100  MISS %:          0   MPKI: 0
PSCL5 PREFETCH  REQUESTED:          0  ISSUED:          0  USEFUL:          0  USELESS:          0
PSCL5 USEFUL LOAD PREFETCHES:          0 PREFETCH ISSUED TO LOWER LEVEL:          0  ACCURACY: -nan
PSCL5 TIMELY PREFETCHES:          0 LATE PREFETCHES: 0 DROPPED PREFETCHES: 0
PSCL5 PREFETCHES SAME FILL-ORIGIN LEVEL: 0 DIFFERENT FILL-ORIGIN LEVEL: 0

PSCL4 TOTAL     ACCESS:     218842  HIT:     218842  MISS:          0  HIT %:        100  MISS %:          0   MPKI: 0
PSCL4 LOAD TRANSLATION ACCESS:       2478  HIT:       2478  MISS:          0  HIT %:        100  MISS %:          0   MPKI: 0
PSCL4 TRANSLATION FROM L1D PREFETCHER ACCESS:     216364  HIT:     216364  MISS:          0  HIT %:        100  MISS %:          0   MPKI: 0
PSCL4 PREFETCH  REQUESTED:          0  ISSUED:          0  USEFUL:          0  USELESS:          0
PSCL4 USEFUL LOAD PREFETCHES:          0 PREFETCH ISSUED TO LOWER LEVEL:          0  ACCURACY: -nan
PSCL4 TIMELY PREFETCHES:          0 LATE PREFETCHES: 0 DROPPED PREFETCHES: 0
PSCL4 PREFETCHES SAME FILL-ORIGIN LEVEL: 0 DIFFERENT FILL-ORIGIN LEVEL: 0

PSCL3 TOTAL     ACCESS:     218842  HIT:     218842  MISS:          0  HIT %:        100  MISS %:          0   MPKI: 0
PSCL3 LOAD TRANSLATION ACCESS:       2478  HIT:       2478  MISS:          0  HIT %:        100  MISS %:          0   MPKI: 0
PSCL3 TRANSLATION FROM L1D PREFETCHER ACCESS:     216364  HIT:     216364  MISS:          0  HIT %:        100  MISS %:          0   MPKI: 0
PSCL3 PREFETCH  REQUESTED:          0  ISSUED:          0  USEFUL:          0  USELESS:          0
PSCL3 USEFUL LOAD PREFETCHES:          0 PREFETCH ISSUED TO LOWER LEVEL:          0  ACCURACY: -nan
PSCL3 TIMELY PREFETCHES:          0 LATE PREFETCHES: 0 DROPPED PREFETCHES: 0
PSCL3 PREFETCHES SAME FILL-ORIGIN LEVEL: 0 DIFFERENT FILL-ORIGIN LEVEL: 0

PSCL2 TOTAL     ACCESS:     202016  HIT:     201997  MISS:         19  HIT %:    99.9906  MISS %:  0.0094052   MPKI: 9.5e-05
PSCL2 LOAD TRANSLATION ACCESS:       2478  HIT:       2459  MISS:         19  HIT %:    99.2333  MISS %:   0.766747   MPKI: 9.5e-05
PSCL2 TRANSLATION FROM L1D PREFETCHER ACCESS:     199538  HIT:     199538  MISS:          0  HIT %:        100  MISS %:          0   MPKI: 0
PSCL2 PREFETCH  REQUESTED:          0  ISSUED:          0  USEFUL:          0  USELESS:          0
PSCL2 USEFUL LOAD PREFETCHES:          0 PREFETCH ISSUED TO LOWER LEVEL:          0  ACCURACY: -nan
PSCL2 TIMELY PREFETCHES:          0 LATE PREFETCHES: 0 DROPPED PREFETCHES: 0
PSCL2 PREFETCHES SAME FILL-ORIGIN LEVEL: 0 DIFFERENT FILL-ORIGIN LEVEL: 0

LLC TOTAL     ACCESS:     193513  HIT:      46275  MISS:     147238  HIT %:    23.9131  MISS %:    76.0869   MPKI: 0.73619
LLC LOAD      ACCESS:       8699  HIT:       4384  MISS:       4315  HIT %:    50.3966  MISS %:    49.6034   MPKI: 0.021575
LLC RFO       ACCESS:        114  HIT:          0  MISS:        114  HIT %:          0  MISS %:        100   MPKI: 0.00057
LLC PREFETCH  ACCESS:     183445  HIT:      41122  MISS:     142323  HIT %:    22.4165  MISS %:    77.5835   MPKI: 0.711615
LLC WRITEBACK ACCESS:        123  HIT:        120  MISS:          3  HIT %:     97.561  MISS %:    2.43902   MPKI: 1.5e-05
LLC LOAD TRANSLATION ACCESS:        424  HIT:        145  MISS:        279  HIT %:    34.1981  MISS %:    65.8019   MPKI: 0.001395
LLC TRANSLATION FROM L1D PREFETCHER ACCESS:        708  HIT:        504  MISS:        204  HIT %:    71.1864  MISS %:    28.8136   MPKI: 0.00102
LLC PREFETCH  REQUESTED:          0  ISSUED:          0  USEFUL:       1023  USELESS:     141631
LLC USEFUL LOAD PREFETCHES:       1023 PREFETCH ISSUED TO LOWER LEVEL:     142323  ACCURACY: 0.718788
LLC TIMELY PREFETCHES:       1023 LATE PREFETCHES: 0 DROPPED PREFETCHES: 0
LLC PREFETCHES SAME FILL-ORIGIN LEVEL: 0 DIFFERENT FILL-ORIGIN LEVEL: 0
LLC AVERAGE MISS LATENCY: 89.1289 cycles
LLC RQ	ACCESS:       9945	FORWARD:          0	MERGED:          0	TO_CACHE:       9945
LLC WQ	ACCESS:        123	FORWARD:          0	MERGED:          0	TO_CACHE:        123
LLC PQ	ACCESS:     183445	FORWARD:          0	MERGED:          0	TO_CACHE:     183445

LLC Dense regions hint to LLC: 0

RAW hits: 1370582
Loads Generated: 62070822
Loads sent to L1D: 60700238
Stores Generated: 3646099
Stores sent to L1D: 3646099
Major fault: 0 Minor fault: 3391
Allocated PAGES: 3391

DRAM Statistics
 CHANNEL 0
 RQ ROW_BUFFER_HIT:     120573  ROW_BUFFER_MISS:      26662
 DBUS_CONGESTED:          0
 WQ ROW_BUFFER_HIT:          0  ROW_BUFFER_MISS:        118  FULL:          0

 AVG_CONGESTED_CYCLE: -
 All warmup complete: 2
Channel 0 Bank busy for read cycles: 0
Channel 0 Bank busy for write cycles: 0
Channel 0
Rank 0
0banks busy for read cycles: 296787392
0banks busy for write cycles: 112
1banks busy for read cycles: 7824864
1banks busy for write cycles: 16119
2banks busy for read cycles: 277118
2banks busy for write cycles: 583
3banks busy for read cycles: 93636
3banks busy for write cycles: 146
4banks busy for read cycles: 83596
4banks busy for write cycles: 0
5banks busy for read cycles: 99871
5banks busy for write cycles: 0
6banks busy for read cycles: 60445
6banks busy for write cycles: 0
7banks busy for read cycles: 10370
7banks busy for write cycles: 0
8banks busy for read cycles: 12369
8banks busy for write cycles: 0

CPU 0 Branch Prediction Accuracy: 97.965% MPKI: 2.1276 Average ROB Occupancy at Mispredict: 139.646
Branch types
NOT_BRANCH: 174249442 87.1247%
BRANCH_DIRECT_JUMP: 4173606 2.0868%
BRANCH_INDIRECT: 0 0%
BRANCH_CONDITIONAL: 20909737 10.4549%
BRANCH_DIRECT_CALL: 333474 0.166737%
BRANCH_INDIRECT_CALL: 0 0%
BRANCH_RETURN: 333474 0.166737%
BRANCH_OTHER: 0 0%

DRAM PAGES: 1048576
Allocated PAGES: 3391
