
*** ChampSim Multicore Out-of-Order Simulator ***

Warmup Instructions: 50000000
Simulation Instructions: 200000000
Number of CPUs: 1
LLC sets: 2048
LLC ways: 16
Off-chip DRAM Size: 4096 MB Channels: 1 Width: 64-bit Data Rate: 6400 MT/s
argv[0]: ./ChampSim/Berti/bin/hashed_perceptron-no-vberti-no-no-no-no-no-lru-lru-lru-srrip-drrip-lru-lru-lru-1core-no
argv[1]: -warmup_instructions
argv[2]: 50000000
argv[3]: -simulation_instructions
argv[4]: 200000000
argv[5]: -traces
argv[6]: traces/spec2k17_ten/654.roms_s-1021B.champsimtrace.xz
CPU 0 runs traces/spec2k17_ten/654.roms_s-1021B.champsimtrace.xz
.xz
BTB has LRU replacement policy
ITLB has LRU replacement policy
DTLB has LRU replacement policy
STLB has LRU replacement policy
L1I has LRU replacement policy
History Sets: 8
History Ways: 16
BERTI Size: 16
BERTI Stride Size: 16
L1D has LRU replacement policy
Initialize SRRIP state for L2C
Initialize DRRIP state for LLC
Heartbeat CPU 0 instructions: 10000000 cycles: 2766656 heartbeat IPC: 3.61447 cumulative IPC: 3.61447 (Simulation time: 0 hr 1 min 42 sec) 
Heartbeat CPU 0 instructions: 20000003 cycles: 5532448 heartbeat IPC: 3.6156 cumulative IPC: 3.61504 (Simulation time: 0 hr 2 min 47 sec) 
Heartbeat CPU 0 instructions: 30000000 cycles: 8298387 heartbeat IPC: 3.61541 cumulative IPC: 3.61516 (Simulation time: 0 hr 3 min 44 sec) 
Heartbeat CPU 0 instructions: 40000003 cycles: 11064203 heartbeat IPC: 3.61557 cumulative IPC: 3.61526 (Simulation time: 0 hr 5 min 46 sec) 
Heartbeat CPU 0 instructions: 50000001 cycles: 13830120 heartbeat IPC: 3.61544 cumulative IPC: 3.6153 (Simulation time: 0 hr 12 min 2 sec) 

Warmup complete CPU 0 instructions: 50000001 cycles: 13830120 (Simulation time: 0 hr 12 min 2 sec) 

