 (TOTAL 67349)
 
*** ChampSim Multicore Out-of-Order Simulator ***

Warmup Instructions: 50000000
Simulation Instructions: 200000000
Number of CPUs: 1
LLC sets: 2048
LLC ways: 16
Off-chip DRAM Size: 4096 MB Channels: 1 Width: 64-bit Data Rate: 6400 MT/s
argv[0]: ./ChampSim/Berti/bin/tagescl8kb-no-vberti-no-no-no-no-no-lru-lru-lru-srrip-drrip-lru-lru-lru-1core-no
argv[1]: -warmup_instructions
argv[2]: 50000000
argv[3]: -simulation_instructions
argv[4]: 200000000
argv[5]: -traces
argv[6]: traces/spec2k17_ten/657.xz_s-3167B.champsimtrace.xz
CPU 0 runs traces/spec2k17_ten/657.xz_s-3167B.champsimtrace.xz
.xz
CPU 0 Tage branch predictor
BTB has LRU replacement policy
ITLB has LRU replacement policy
DTLB has LRU replacement policy
STLB has LRU replacement policy
L1I has LRU replacement policy
History Sets: 8
History Ways: 16
BERTI Size: 16
BERTI Stride Size: 16
L1D has LRU replacement policy
Initialize SRRIP state for L2C
Initialize DRRIP state for LLC
Heartbeat CPU 0 instructions: 10000000 cycles: 2857229 heartbeat IPC: 3.49989 cumulative IPC: 3.49989 (Simulation time: 0 hr 2 min 52 sec) 
Heartbeat CPU 0 instructions: 20000002 cycles: 5715679 heartbeat IPC: 3.4984 cumulative IPC: 3.49915 (Simulation time: 0 hr 6 min 29 sec) 
Heartbeat CPU 0 instructions: 30000003 cycles: 8550674 heartbeat IPC: 3.52734 cumulative IPC: 3.5085 (Simulation time: 0 hr 11 min 8 sec) 
Heartbeat CPU 0 instructions: 40000000 cycles: 11389026 heartbeat IPC: 3.52317 cumulative IPC: 3.51215 (Simulation time: 0 hr 14 min 7 sec) 
Heartbeat CPU 0 instructions: 50000001 cycles: 14238803 heartbeat IPC: 3.50905 cumulative IPC: 3.51153 (Simulation time: 0 hr 17 min 8 sec) 

Warmup complete CPU 0 instructions: 50000001 cycles: 14238803 (Simulation time: 0 hr 17 min 8 sec) 

Heartbeat CPU 0 instructions: 60000001 cycles: 29491162 heartbeat IPC: 0.655636 cumulative IPC: 0.655636 (Simulation time: 0 hr 21 min 26 sec) 
Heartbeat CPU 0 instructions: 70000000 cycles: 44210798 heartbeat IPC: 0.679365 cumulative IPC: 0.66729 (Simulation time: 0 hr 25 min 33 sec) 
Heartbeat CPU 0 instructions: 80000002 cycles: 59168666 heartbeat IPC: 0.668545 cumulative IPC: 0.667707 (Simulation time: 0 hr 29 min 24 sec) 
Heartbeat CPU 0 instructions: 90000001 cycles: 73485041 heartbeat IPC: 0.698501 cumulative IPC: 0.675148 (Simulation time: 0 hr 33 min 47 sec) 
Heartbeat CPU 0 instructions: 100000001 cycles: 88436097 heartbeat IPC: 0.668849 cumulative IPC: 0.673879 (Simulation time: 0 hr 36 min 12 sec) 
Heartbeat CPU 0 instructions: 110000000 cycles: 103333391 heartbeat IPC: 0.671263 cumulative IPC: 0.673442 (Simulation time: 0 hr 38 min 33 sec) 
Heartbeat CPU 0 instructions: 120000003 cycles: 117683719 heartbeat IPC: 0.696848 cumulative IPC: 0.676689 (Simulation time: 0 hr 41 min 6 sec) 
Heartbeat CPU 0 instructions: 130000003 cycles: 131255317 heartbeat IPC: 0.736833 cumulative IPC: 0.683664 (Simulation time: 0 hr 43 min 37 sec) 
Heartbeat CPU 0 instructions: 140000001 cycles: 145629572 heartbeat IPC: 0.695688 cumulative IPC: 0.68498 (Simulation time: 0 hr 46 min 18 sec) 
Heartbeat CPU 0 instructions: 150000000 cycles: 159344168 heartbeat IPC: 0.72915 cumulative IPC: 0.689154 (Simulation time: 0 hr 48 min 36 sec) 
Heartbeat CPU 0 instructions: 160000002 cycles: 172865872 heartbeat IPC: 0.739552 cumulative IPC: 0.69345 (Simulation time: 0 hr 50 min 29 sec) 
Heartbeat CPU 0 instructions: 170000001 cycles: 187732377 heartbeat IPC: 0.672653 cumulative IPC: 0.691668 (Simulation time: 0 hr 51 min 49 sec) 
Heartbeat CPU 0 instructions: 180000001 cycles: 203966223 heartbeat IPC: 0.615997 cumulative IPC: 0.685194 (Simulation time: 0 hr 53 min 10 sec) 
Heartbeat CPU 0 instructions: 190000000 cycles: 221434009 heartbeat IPC: 0.572482 cumulative IPC: 0.675691 (Simulation time: 0 hr 54 min 22 sec) 
Heartbeat CPU 0 instructions: 200000000 cycles: 238115388 heartbeat IPC: 0.599471 cumulative IPC: 0.670012 (Simulation time: 0 hr 55 min 22 sec) 
Heartbeat CPU 0 instructions: 210000001 cycles: 254656786 heartbeat IPC: 0.604544 cumulative IPC: 0.665508 (Simulation time: 0 hr 56 min 23 sec) 
Heartbeat CPU 0 instructions: 220000000 cycles: 270388445 heartbeat IPC: 0.635661 cumulative IPC: 0.663675 (Simulation time: 0 hr 57 min 23 sec) 
Heartbeat CPU 0 instructions: 230000002 cycles: 285405105 heartbeat IPC: 0.665927 cumulative IPC: 0.663799 (Simulation time: 0 hr 58 min 22 sec) 
Heartbeat CPU 0 instructions: 240000001 cycles: 300479831 heartbeat IPC: 0.663362 cumulative IPC: 0.663776 (Simulation time: 0 hr 59 min 4 sec) 
Heartbeat CPU 0 instructions: 250000001 cycles: 314775654 heartbeat IPC: 0.699505 cumulative IPC: 0.665476 (Simulation time: 0 hr 59 min 42 sec) 
Finished CPU 0 instructions: 200000000 cycles: 300536851 cumulative IPC: 0.665476 (Simulation time: 0 hr 59 min 42 sec) 

ChampSim completed all CPUs

Region of Interest Statistics

CPU 0 cumulative IPC: 0.665476 instructions: 200000000 cycles: 300536851
ITLB TOTAL     ACCESS:   30338662  HIT:   30338662  MISS:          0  HIT %:        100  MISS %:          0   MPKI: 0
ITLB LOAD TRANSLATION ACCESS:   30338662  HIT:   30338662  MISS:          0  HIT %:        100  MISS %:          0   MPKI: 0
ITLB PREFETCH  REQUESTED:          0  ISSUED:          0  USEFUL:          0  USELESS:          0
ITLB USEFUL LOAD PREFETCHES:          0 PREFETCH ISSUED TO LOWER LEVEL:          0  ACCURACY: -nan
ITLB TIMELY PREFETCHES:          0 LATE PREFETCHES: 0 DROPPED PREFETCHES: 0
ITLB PREFETCHES SAME FILL-ORIGIN LEVEL: 0 DIFFERENT FILL-ORIGIN LEVEL: 0
ITLB AVERAGE MISS LATENCY: -nan cycles
ITLB RQ	ACCESS:   35583679	FORWARD:          0	MERGED:    5245018	TO_CACHE:   30338661

DTLB TOTAL     ACCESS:   38008887  HIT:   36994298  MISS:    1014589  HIT %:    97.3307  MISS %:    2.66935   MPKI: 5.07294
DTLB LOAD TRANSLATION ACCESS:   38008887  HIT:   36994298  MISS:    1014589  HIT %:    97.3307  MISS %:    2.66935   MPKI: 5.07294
DTLB PREFETCH  REQUESTED:          0  ISSUED:          0  USEFUL:          0  USELESS:          0
DTLB USEFUL LOAD PREFETCHES:          0 PREFETCH ISSUED TO LOWER LEVEL:          0  ACCURACY: -nan
DTLB TIMELY PREFETCHES:          0 LATE PREFETCHES: 0 DROPPED PREFETCHES: 0
DTLB PREFETCHES SAME FILL-ORIGIN LEVEL: 0 DIFFERENT FILL-ORIGIN LEVEL: 0
DTLB AVERAGE MISS LATENCY: 12.0947 cycles
DTLB RQ	ACCESS:   45026620	FORWARD:          0	MERGED:    7009389	TO_CACHE:   38017231

STLB TOTAL     ACCESS:    2194863  HIT:    2091858  MISS:     103005  HIT %:     95.307  MISS %:      4.693   MPKI: 0.515025
STLB LOAD TRANSLATION ACCESS:    1014589  HIT:     912184  MISS:     102405  HIT %:    89.9068  MISS %:    10.0932   MPKI: 0.512025
STLB TRANSLATION FROM L1D PREFETCHER ACCESS:    1180274  HIT:    1179674  MISS:        600  HIT %:    99.9492  MISS %:  0.0508357   MPKI: 0.003
STLB PREFETCH  REQUESTED:          0  ISSUED:          0  USEFUL:        413  USELESS:        185
STLB USEFUL LOAD PREFETCHES:        413 PREFETCH ISSUED TO LOWER LEVEL:          0  ACCURACY: inf
STLB TIMELY PREFETCHES:        413 LATE PREFETCHES: 102 DROPPED PREFETCHES: 7627
STLB PREFETCHES SAME FILL-ORIGIN LEVEL: 0 DIFFERENT FILL-ORIGIN LEVEL: 0
STLB AVERAGE MISS LATENCY: 30.4481 cycles
STLB RQ	ACCESS:    4369844	FORWARD:          0	MERGED:    2164802	TO_CACHE:    2205042

STLB Hit, L1D data hit: 0
STLB Hit, L2C data hit: 0
STLB Hit, LLC data hit: 0
STLB Hit, LLC data miss: 0
STLB STLB hints to L2: 0
L1D TOTAL     ACCESS:   47443038  HIT:   46459026  MISS:     984012  HIT %:    97.9259  MISS %:    2.07409   MPKI: 4.92006
L1D LOAD      ACCESS:   31518804  HIT:   30777807  MISS:     740997  HIT %:     97.649  MISS %:    2.35097   MPKI: 3.70499
L1D RFO       ACCESS:   13359153  HIT:   13136153  MISS:     223000  HIT %:    98.3307  MISS %:    1.66927   MPKI: 1.115
L1D PREFETCH  ACCESS:    2565081  HIT:    2545066  MISS:      20015  HIT %:    99.2197  MISS %:   0.780287   MPKI: 0.100075
L1D PREFETCH  REQUESTED:    6810641  ISSUED:    6810493  USEFUL:      14375  USELESS:       5640
L1D USEFUL LOAD PREFETCHES:      14375 PREFETCH ISSUED TO LOWER LEVEL:     759339  ACCURACY: 1.89309
L1D TIMELY PREFETCHES:      14375 LATE PREFETCHES: 73 DROPPED PREFETCHES: 21686
L1D PREFETCHES SAME FILL-ORIGIN LEVEL: 20089 DIFFERENT FILL-ORIGIN LEVEL: 739250
L1D AVERAGE MISS LATENCY: 60.153 cycles
L1D RQ	ACCESS:   46196121	FORWARD:          0	MERGED:   14515930	TO_CACHE:   31579926
L1D WQ	ACCESS:   13607731	FORWARD:     100368	MERGED:     161037	TO_CACHE:   13446694
L1D PQ	ACCESS:    3455238	FORWARD:          0	MERGED:      99880	TO_CACHE:    3355255

L1D UNIQUE REGIONS ACCESSED: 0
L1D REGIONS CONFLICTS: 0
L1D Cross Page Prefetch Requests: 419704
L1D Same Page Prefetch Requests: 3718855
L1D ROI Sum of L1D PQ occupancy: 47456955
L1D PREFETCHES PUSHED FROM L2C: 0
L1I TOTAL     ACCESS:   35583300  HIT:   35582622  MISS:        678  HIT %:    99.9981  MISS %: 0.00190539   MPKI: 0.00339
L1I LOAD      ACCESS:   35583300  HIT:   35582622  MISS:        678  HIT %:    99.9981  MISS %: 0.00190539   MPKI: 0.00339
L1I PREFETCH  REQUESTED:          0  ISSUED:          0  USEFUL:          0  USELESS:          0
L1I USEFUL LOAD PREFETCHES:          0 PREFETCH ISSUED TO LOWER LEVEL:          0  ACCURACY: -nan
L1I TIMELY PREFETCHES:          0 LATE PREFETCHES: 0 DROPPED PREFETCHES: 0
L1I PREFETCHES SAME FILL-ORIGIN LEVEL: 0 DIFFERENT FILL-ORIGIN LEVEL: 0
L1I AVERAGE MISS LATENCY: 43.3068 cycles
L1I RQ	ACCESS:   51391528	FORWARD:          0	MERGED:   15807849	TO_CACHE:   35583679

BTB TOTAL     ACCESS:   28542123  HIT:   28359925  MISS:     182198  HIT %:    99.3617  MISS %:   0.638348   MPKI: 0.91099
BTB BRANCH_DIRECT_JUMP	ACCESS:    1466488  HIT:    1466410  MISS:         78
BTB BRANCH_INDIRECT	ACCESS:     319019  HIT:     145256  MISS:     173763
BTB BRANCH_CONDITIONAL	ACCESS:   26451120  HIT:   26450872  MISS:        248
BTB BRANCH_DIRECT_CALL	ACCESS:     100874  HIT:     100855  MISS:         19
BTB BRANCH_INDIRECT_CALL	ACCESS:      51874  HIT:      51867  MISS:          7
BTB BRANCH_RETURN	ACCESS:     152748  HIT:     144665  MISS:       8083
BTB BRANCH_OTHER ACCESS:          0  HIT:          0  MISS:          0

L2C TOTAL     ACCESS:    2525067  HIT:    2122651  MISS:     402416  HIT %:    84.0632  MISS %:    15.9368   MPKI: 2.01208
L2C LOAD      ACCESS:     741591  HIT:     476507  MISS:     265084  HIT %:    64.2547  MISS %:    35.7453   MPKI: 1.32542
L2C DATA LOAD MPKI: 1.32259
L2C INSTRUCTION LOAD MPKI: 0.00283
L2C RFO       ACCESS:     222997  HIT:     155994  MISS:      67003  HIT %:    69.9534  MISS %:    30.0466   MPKI: 0.335015
L2C PREFETCH  ACCESS:     741484  HIT:     701369  MISS:      40115  HIT %:    94.5899  MISS %:     5.4101   MPKI: 0.200575
L2C DATA PREFETCH MPKI: 0.200575
L2C INSTRUCTION PREFETCH MPKI: 0
L2C WRITEBACK ACCESS:     708263  HIT:     699229  MISS:       9034  HIT %:    98.7245  MISS %:    1.27551   MPKI: 0.04517
L2C LOAD TRANSLATION ACCESS:     102403  HIT:      81405  MISS:      20998  HIT %:    79.4947  MISS %:    20.5053   MPKI: 0.10499
L2C TRANSLATION FROM L1D PREFETCHER ACCESS:       8329  HIT:       8147  MISS:        182  HIT %:    97.8149  MISS %:    2.18514   MPKI: 0.00091
L2C PREFETCH  REQUESTED:          0  ISSUED:          0  USEFUL:       7540  USELESS:      32235
L2C USEFUL LOAD PREFETCHES:       7540 PREFETCH ISSUED TO LOWER LEVEL:      40187  ACCURACY: 18.7623
L2C TIMELY PREFETCHES:       7540 LATE PREFETCHES: 72 DROPPED PREFETCHES: 0
L2C PREFETCHES SAME FILL-ORIGIN LEVEL: 32543 DIFFERENT FILL-ORIGIN LEVEL: 0
L2C AVERAGE MISS LATENCY: 120.823 cycles
L2C RQ	ACCESS:    1075333	FORWARD:          0	MERGED:          0	TO_CACHE:    1075320
L2C WQ	ACCESS:     708263	FORWARD:         16	MERGED:          0	TO_CACHE:     708263
L2C PQ	ACCESS:     759339	FORWARD:          0	MERGED:          1	TO_CACHE:     759335

L2C Instructions Evicting Data 515
L2C Translations Evicting Data 20246
L2C Data Evicting Data 351229
L2C Instructions Evicting Instructions 19
L2C Translations Evicting Instructions 32
L2C Data Evicting Instructions 504
L2C Instructions Evicting Translations 32
L2C Translations Evicting Translations 902
L2C Data Evicting Translations 19903
L2C Dense regions hint from L2: 0
PSCL5 TOTAL     ACCESS:     110732  HIT:     110732  MISS:          0  HIT %:        100  MISS %:          0   MPKI: 0
PSCL5 LOAD TRANSLATION ACCESS:     102403  HIT:     102403  MISS:          0  HIT %:        100  MISS %:          0   MPKI: 0
PSCL5 TRANSLATION FROM L1D PREFETCHER ACCESS:       8329  HIT:       8329  MISS:          0  HIT %:        100  MISS %:          0   MPKI: 0
PSCL5 PREFETCH  REQUESTED:          0  ISSUED:          0  USEFUL:          0  USELESS:          0
PSCL5 USEFUL LOAD PREFETCHES:          0 PREFETCH ISSUED TO LOWER LEVEL:          0  ACCURACY: -nan
PSCL5 TIMELY PREFETCHES:          0 LATE PREFETCHES: 0 DROPPED PREFETCHES: 0
PSCL5 PREFETCHES SAME FILL-ORIGIN LEVEL: 0 DIFFERENT FILL-ORIGIN LEVEL: 0

PSCL4 TOTAL     ACCESS:     110732  HIT:     110732  MISS:          0  HIT %:        100  MISS %:          0   MPKI: 0
PSCL4 LOAD TRANSLATION ACCESS:     102403  HIT:     102403  MISS:          0  HIT %:        100  MISS %:          0   MPKI: 0
PSCL4 TRANSLATION FROM L1D PREFETCHER ACCESS:       8329  HIT:       8329  MISS:          0  HIT %:        100  MISS %:          0   MPKI: 0
PSCL4 PREFETCH  REQUESTED:          0  ISSUED:          0  USEFUL:          0  USELESS:          0
PSCL4 USEFUL LOAD PREFETCHES:          0 PREFETCH ISSUED TO LOWER LEVEL:          0  ACCURACY: -nan
PSCL4 TIMELY PREFETCHES:          0 LATE PREFETCHES: 0 DROPPED PREFETCHES: 0
PSCL4 PREFETCHES SAME FILL-ORIGIN LEVEL: 0 DIFFERENT FILL-ORIGIN LEVEL: 0

PSCL3 TOTAL     ACCESS:     110732  HIT:     110732  MISS:          0  HIT %:        100  MISS %:          0   MPKI: 0
PSCL3 LOAD TRANSLATION ACCESS:     102403  HIT:     102403  MISS:          0  HIT %:        100  MISS %:          0   MPKI: 0
PSCL3 TRANSLATION FROM L1D PREFETCHER ACCESS:       8329  HIT:       8329  MISS:          0  HIT %:        100  MISS %:          0   MPKI: 0
PSCL3 PREFETCH  REQUESTED:          0  ISSUED:          0  USEFUL:          0  USELESS:          0
PSCL3 USEFUL LOAD PREFETCHES:          0 PREFETCH ISSUED TO LOWER LEVEL:          0  ACCURACY: -nan
PSCL3 TIMELY PREFETCHES:          0 LATE PREFETCHES: 0 DROPPED PREFETCHES: 0
PSCL3 PREFETCHES SAME FILL-ORIGIN LEVEL: 0 DIFFERENT FILL-ORIGIN LEVEL: 0

PSCL2 TOTAL     ACCESS:     110674  HIT:     110672  MISS:          2  HIT %:    99.9982  MISS %: 0.00180711   MPKI: 1e-05
PSCL2 LOAD TRANSLATION ACCESS:     102403  HIT:     102401  MISS:          2  HIT %:     99.998  MISS %: 0.00195307   MPKI: 1e-05
PSCL2 TRANSLATION FROM L1D PREFETCHER ACCESS:       8271  HIT:       8271  MISS:          0  HIT %:        100  MISS %:          0   MPKI: 0
PSCL2 PREFETCH  REQUESTED:          0  ISSUED:          0  USEFUL:          0  USELESS:          0
PSCL2 USEFUL LOAD PREFETCHES:          0 PREFETCH ISSUED TO LOWER LEVEL:          0  ACCURACY: -nan
PSCL2 TIMELY PREFETCHES:          0 LATE PREFETCHES: 0 DROPPED PREFETCHES: 0
PSCL2 PREFETCHES SAME FILL-ORIGIN LEVEL: 0 DIFFERENT FILL-ORIGIN LEVEL: 0

LLC TOTAL     ACCESS:     630783  HIT:     409626  MISS:     221157  HIT %:    64.9393  MISS %:    35.0607   MPKI: 1.10579
LLC LOAD      ACCESS:     265030  HIT:     128051  MISS:     136979  HIT %:    48.3157  MISS %:    51.6843   MPKI: 0.684895
LLC RFO       ACCESS:      66984  HIT:       8196  MISS:      58788  HIT %:    12.2358  MISS %:    87.7642   MPKI: 0.29394
LLC PREFETCH  ACCESS:      40187  HIT:      21532  MISS:      18655  HIT %:    53.5795  MISS %:    46.4205   MPKI: 0.093275
LLC WRITEBACK ACCESS:     237402  HIT:     231859  MISS:       5543  HIT %:    97.6651  MISS %:    2.33486   MPKI: 0.027715
LLC LOAD TRANSLATION ACCESS:      20998  HIT:      19835  MISS:       1163  HIT %:    94.4614  MISS %:    5.53862   MPKI: 0.005815
LLC TRANSLATION FROM L1D PREFETCHER ACCESS:        182  HIT:        153  MISS:         29  HIT %:    84.0659  MISS %:    15.9341   MPKI: 0.000145
LLC PREFETCH  REQUESTED:          0  ISSUED:          0  USEFUL:       1296  USELESS:      16791
LLC USEFUL LOAD PREFETCHES:       1296 PREFETCH ISSUED TO LOWER LEVEL:      18655  ACCURACY: 6.9472
LLC TIMELY PREFETCHES:       1296 LATE PREFETCHES: 0 DROPPED PREFETCHES: 0
LLC PREFETCHES SAME FILL-ORIGIN LEVEL: 0 DIFFERENT FILL-ORIGIN LEVEL: 0
LLC AVERAGE MISS LATENCY: 166.446 cycles
LLC RQ	ACCESS:     353195	FORWARD:          0	MERGED:          0	TO_CACHE:     353194
LLC WQ	ACCESS:     237402	FORWARD:          1	MERGED:          0	TO_CACHE:     237402
LLC PQ	ACCESS:      40187	FORWARD:          0	MERGED:          0	TO_CACHE:      40187

LLC Dense regions hint to LLC: 0

RAW hits: 1794188
Loads Generated: 47990311
Loads sent to L1D: 46196121
Stores Generated: 13607724
Stores sent to L1D: 13607731
Major fault: 0 Minor fault: 8260
Allocated PAGES: 8260

DRAM Statistics
 CHANNEL 0
 RQ ROW_BUFFER_HIT:      10467  ROW_BUFFER_MISS:     205145
 DBUS_CONGESTED:          2
 WQ ROW_BUFFER_HIT:      23711  ROW_BUFFER_MISS:     142502  FULL:          0

 AVG_CONGESTED_CYCLE: 5
 All warmup complete: 2
Channel 0 Bank busy for read cycles: 0
Channel 0 Bank busy for write cycles: 0
Channel 0
Rank 0
0banks busy for read cycles: 254385184
0banks busy for write cycles: 103413
1banks busy for read cycles: 22165292
1banks busy for write cycles: 15398156
2banks busy for read cycles: 3157211
2banks busy for write cycles: 2979894
3banks busy for read cycles: 541626
3banks busy for write cycles: 847275
4banks busy for read cycles: 142761
4banks busy for write cycles: 267109
5banks busy for read cycles: 44868
5banks busy for write cycles: 117889
6banks busy for read cycles: 25629
6banks busy for write cycles: 67259
7banks busy for read cycles: 12264
7banks busy for write cycles: 58168
8banks busy for read cycles: 19441
8banks busy for write cycles: 203413

CPU 0 Branch Prediction Accuracy: 96.0335% MPKI: 5.47137 Average ROB Occupancy at Mispredict: 24.1273
Branch types
NOT_BRANCH: 170320875 85.1604%
BRANCH_DIRECT_JUMP: 1466488 0.733244%
BRANCH_INDIRECT: 319019 0.159509%
BRANCH_CONDITIONAL: 27588111 13.7941%
BRANCH_DIRECT_CALL: 100874 0.050437%
BRANCH_INDIRECT_CALL: 51874 0.025937%
BRANCH_RETURN: 152748 0.076374%
BRANCH_OTHER: 0 0%

DRAM PAGES: 1048576
Allocated PAGES: 8260
