 (TOTAL 523355 bits 511 Kbits) 
*** ChampSim Multicore Out-of-Order Simulator ***

Warmup Instructions: 50000000
Simulation Instructions: 200000000
Number of CPUs: 1
LLC sets: 2048
LLC ways: 16
Off-chip DRAM Size: 4096 MB Channels: 1 Width: 64-bit Data Rate: 6400 MT/s
argv[0]: ./ChampSim/Berti/bin/tagescl-no-vberti-no-no-no-no-no-lru-lru-lru-srrip-drrip-lru-lru-lru-1core-no
argv[1]: -warmup_instructions
argv[2]: 50000000
argv[3]: -simulation_instructions
argv[4]: 200000000
argv[5]: -traces
argv[6]: traces/spec2k17_ten/641.leela_s-1083B.champsimtrace.xz
CPU 0 runs traces/spec2k17_ten/641.leela_s-1083B.champsimtrace.xz
.xz
CPU 0 Tage branch predictor
BTB has LRU replacement policy
ITLB has LRU replacement policy
DTLB has LRU replacement policy
STLB has LRU replacement policy
L1I has LRU replacement policy
History Sets: 8
History Ways: 16
BERTI Size: 16
BERTI Stride Size: 16
L1D has LRU replacement policy
Initialize SRRIP state for L2C
Initialize DRRIP state for LLC
Heartbeat CPU 0 instructions: 10000000 cycles: 3152151 heartbeat IPC: 3.17244 cumulative IPC: 3.17244 (Simulation time: 0 hr 7 min 46 sec) 
Heartbeat CPU 0 instructions: 20000000 cycles: 6313464 heartbeat IPC: 3.16324 cumulative IPC: 3.16783 (Simulation time: 0 hr 15 min 55 sec) 
Heartbeat CPU 0 instructions: 30000003 cycles: 9485753 heartbeat IPC: 3.1523 cumulative IPC: 3.16264 (Simulation time: 0 hr 23 min 42 sec) 
Heartbeat CPU 0 instructions: 40000003 cycles: 12643204 heartbeat IPC: 3.16711 cumulative IPC: 3.16376 (Simulation time: 0 hr 31 min 46 sec) 
Heartbeat CPU 0 instructions: 50000003 cycles: 15799721 heartbeat IPC: 3.16805 cumulative IPC: 3.16461 (Simulation time: 0 hr 39 min 18 sec) 

Warmup complete CPU 0 instructions: 50000003 cycles: 15799721 (Simulation time: 0 hr 39 min 18 sec) 

Heartbeat CPU 0 instructions: 60000002 cycles: 42052722 heartbeat IPC: 0.380909 cumulative IPC: 0.380909 (Simulation time: 0 hr 47 min 21 sec) 
Heartbeat CPU 0 instructions: 70000002 cycles: 68600431 heartbeat IPC: 0.37668 cumulative IPC: 0.378783 (Simulation time: 0 hr 55 min 26 sec) 
Heartbeat CPU 0 instructions: 80000000 cycles: 94782606 heartbeat IPC: 0.381939 cumulative IPC: 0.379829 (Simulation time: 1 hr 3 min 37 sec) 
Heartbeat CPU 0 instructions: 90000003 cycles: 121689244 heartbeat IPC: 0.371656 cumulative IPC: 0.377752 (Simulation time: 1 hr 11 min 45 sec) 
Heartbeat CPU 0 instructions: 100000002 cycles: 148215771 heartbeat IPC: 0.376981 cumulative IPC: 0.377598 (Simulation time: 1 hr 19 min 46 sec) 
Heartbeat CPU 0 instructions: 110000000 cycles: 174243304 heartbeat IPC: 0.384208 cumulative IPC: 0.378684 (Simulation time: 1 hr 27 min 15 sec) 
Heartbeat CPU 0 instructions: 120000000 cycles: 200172338 heartbeat IPC: 0.385668 cumulative IPC: 0.379666 (Simulation time: 1 hr 34 min 18 sec) 
Heartbeat CPU 0 instructions: 130000001 cycles: 226495303 heartbeat IPC: 0.379896 cumulative IPC: 0.379695 (Simulation time: 1 hr 40 min 7 sec) 
Heartbeat CPU 0 instructions: 140000000 cycles: 252893160 heartbeat IPC: 0.378819 cumulative IPC: 0.379597 (Simulation time: 1 hr 45 min 52 sec) 
Heartbeat CPU 0 instructions: 150000000 cycles: 279052158 heartbeat IPC: 0.382278 cumulative IPC: 0.379864 (Simulation time: 1 hr 49 min 40 sec) 
Heartbeat CPU 0 instructions: 160000000 cycles: 304962760 heartbeat IPC: 0.385942 cumulative IPC: 0.380408 (Simulation time: 1 hr 52 min 53 sec) 
Heartbeat CPU 0 instructions: 170000001 cycles: 331104661 heartbeat IPC: 0.382528 cumulative IPC: 0.380584 (Simulation time: 1 hr 56 min 53 sec) 
Heartbeat CPU 0 instructions: 180000000 cycles: 357432368 heartbeat IPC: 0.379828 cumulative IPC: 0.380526 (Simulation time: 2 hr 2 min 25 sec) 
Heartbeat CPU 0 instructions: 190000000 cycles: 383612769 heartbeat IPC: 0.381965 cumulative IPC: 0.380628 (Simulation time: 2 hr 6 min 43 sec) 
Heartbeat CPU 0 instructions: 200000001 cycles: 409891464 heartbeat IPC: 0.380536 cumulative IPC: 0.380622 (Simulation time: 2 hr 10 min 7 sec) 
Heartbeat CPU 0 instructions: 210000003 cycles: 436613625 heartbeat IPC: 0.374221 cumulative IPC: 0.380216 (Simulation time: 2 hr 12 min 49 sec) 
Heartbeat CPU 0 instructions: 220000000 cycles: 463213985 heartbeat IPC: 0.375935 cumulative IPC: 0.379961 (Simulation time: 2 hr 15 min 58 sec) 
Heartbeat CPU 0 instructions: 230000000 cycles: 489863506 heartbeat IPC: 0.375241 cumulative IPC: 0.379696 (Simulation time: 2 hr 18 min 37 sec) 
Heartbeat CPU 0 instructions: 240000000 cycles: 516089095 heartbeat IPC: 0.381307 cumulative IPC: 0.37978 (Simulation time: 2 hr 21 min 4 sec) 
Heartbeat CPU 0 instructions: 250000000 cycles: 574522079 heartbeat IPC: 0.171136 cumulative IPC: 0.35796 (Simulation time: 2 hr 25 min 27 sec) 
Finished CPU 0 instructions: 200000000 cycles: 558722409 cumulative IPC: 0.35796 (Simulation time: 2 hr 25 min 27 sec) 

ChampSim completed all CPUs

Region of Interest Statistics

CPU 0 cumulative IPC: 0.35796 instructions: 200000000 cycles: 558722409
ITLB TOTAL     ACCESS:   36669447  HIT:   36669199  MISS:        248  HIT %:    99.9993  MISS %: 0.000676312   MPKI: 0.00124
ITLB LOAD TRANSLATION ACCESS:   36669447  HIT:   36669199  MISS:        248  HIT %:    99.9993  MISS %: 0.000676312   MPKI: 0.00124
ITLB PREFETCH  REQUESTED:          0  ISSUED:          0  USEFUL:          0  USELESS:          0
ITLB USEFUL LOAD PREFETCHES:          0 PREFETCH ISSUED TO LOWER LEVEL:          0  ACCURACY: -nan
ITLB TIMELY PREFETCHES:          0 LATE PREFETCHES: 0 DROPPED PREFETCHES: 0
ITLB PREFETCHES SAME FILL-ORIGIN LEVEL: 0 DIFFERENT FILL-ORIGIN LEVEL: 0
ITLB AVERAGE MISS LATENCY: 130.565 cycles
ITLB RQ	ACCESS:   41612218	FORWARD:          0	MERGED:    4942700	TO_CACHE:   36669518

DTLB TOTAL     ACCESS:   59346397  HIT:   59242532  MISS:     103865  HIT %:     99.825  MISS %:   0.175015   MPKI: 0.519325
DTLB LOAD TRANSLATION ACCESS:   59346397  HIT:   59242532  MISS:     103865  HIT %:     99.825  MISS %:   0.175015   MPKI: 0.519325
DTLB PREFETCH  REQUESTED:          0  ISSUED:          0  USEFUL:          0  USELESS:          0
DTLB USEFUL LOAD PREFETCHES:          0 PREFETCH ISSUED TO LOWER LEVEL:          0  ACCURACY: -nan
DTLB TIMELY PREFETCHES:          0 LATE PREFETCHES: 0 DROPPED PREFETCHES: 0
DTLB PREFETCHES SAME FILL-ORIGIN LEVEL: 0 DIFFERENT FILL-ORIGIN LEVEL: 0
DTLB AVERAGE MISS LATENCY: 13.1352 cycles
DTLB RQ	ACCESS:   67217479	FORWARD:          0	MERGED:    7855423	TO_CACHE:   59362056

STLB TOTAL     ACCESS:    3495053  HIT:    3488870  MISS:       6183  HIT %:    99.8231  MISS %:   0.176907   MPKI: 0.030915
STLB LOAD TRANSLATION ACCESS:     104113  HIT:      99714  MISS:       4399  HIT %:    95.7748  MISS %:    4.22522   MPKI: 0.021995
STLB TRANSLATION FROM L1D PREFETCHER ACCESS:    3390940  HIT:    3389156  MISS:       1784  HIT %:    99.9474  MISS %:  0.0526108   MPKI: 0.00892
STLB PREFETCH  REQUESTED:          0  ISSUED:          0  USEFUL:       1769  USELESS:         11
STLB USEFUL LOAD PREFETCHES:       1769 PREFETCH ISSUED TO LOWER LEVEL:          0  ACCURACY: inf
STLB TIMELY PREFETCHES:       1769 LATE PREFETCHES: 365 DROPPED PREFETCHES: 27497
STLB PREFETCHES SAME FILL-ORIGIN LEVEL: 0 DIFFERENT FILL-ORIGIN LEVEL: 0
STLB AVERAGE MISS LATENCY: 94.765 cycles
STLB RQ	ACCESS:   22450584	FORWARD:          0	MERGED:   18918617	TO_CACHE:    3531967

STLB Hit, L1D data hit: 0
STLB Hit, L2C data hit: 0
STLB Hit, LLC data hit: 0
STLB Hit, LLC data miss: 0
STLB STLB hints to L2: 0
L1D TOTAL     ACCESS:   83859580  HIT:   82575735  MISS:    1283845  HIT %:    98.4691  MISS %:    1.53095   MPKI: 6.41922
L1D LOAD      ACCESS:   41941044  HIT:   41516660  MISS:     424384  HIT %:    98.9881  MISS %:    1.01186   MPKI: 2.12192
L1D RFO       ACCESS:   23050713  HIT:   22620276  MISS:     430437  HIT %:    98.1327  MISS %:    1.86735   MPKI: 2.15218
L1D PREFETCH  ACCESS:   18867823  HIT:   18438799  MISS:     429024  HIT %:    97.7262  MISS %:    2.27384   MPKI: 2.14512
L1D PREFETCH  REQUESTED:   45799746  ISSUED:   45783617  USEFUL:     405957  USELESS:      23060
L1D USEFUL LOAD PREFETCHES:     405957 PREFETCH ISSUED TO LOWER LEVEL:    2198462  ACCURACY: 18.4655
L1D TIMELY PREFETCHES:     405957 LATE PREFETCHES: 4576 DROPPED PREFETCHES: 84070
L1D PREFETCHES SAME FILL-ORIGIN LEVEL: 433607 DIFFERENT FILL-ORIGIN LEVEL: 1764855
L1D AVERAGE MISS LATENCY: 127.13 cycles
L1D RQ	ACCESS:   53574690	FORWARD:          0	MERGED:    9527463	TO_CACHE:   41963332
L1D WQ	ACCESS:   25679663	FORWARD:    2083898	MERGED:     425516	TO_CACHE:   25254147
L1D PQ	ACCESS:   23437146	FORWARD:          0	MERGED:    1090672	TO_CACHE:   22346471

L1D UNIQUE REGIONS ACCESSED: 0
L1D REGIONS CONFLICTS: 0
L1D Cross Page Prefetch Requests: 2396123
L1D Same Page Prefetch Requests: 22006724
L1D ROI Sum of L1D PQ occupancy: 329973562
L1D PREFETCHES PUSHED FROM L2C: 0
L1I TOTAL     ACCESS:   41606082  HIT:   41590655  MISS:      15427  HIT %:    99.9629  MISS %:  0.0370787   MPKI: 0.077135
L1I LOAD      ACCESS:   41606082  HIT:   41590655  MISS:      15427  HIT %:    99.9629  MISS %:  0.0370787   MPKI: 0.077135
L1I PREFETCH  REQUESTED:          0  ISSUED:          0  USEFUL:          0  USELESS:          0
L1I USEFUL LOAD PREFETCHES:          0 PREFETCH ISSUED TO LOWER LEVEL:          0  ACCURACY: -nan
L1I TIMELY PREFETCHES:          0 LATE PREFETCHES: 0 DROPPED PREFETCHES: 0
L1I PREFETCHES SAME FILL-ORIGIN LEVEL: 0 DIFFERENT FILL-ORIGIN LEVEL: 0
L1I AVERAGE MISS LATENCY: 46.4204 cycles
L1I RQ	ACCESS:   58905506	FORWARD:          0	MERGED:   17293288	TO_CACHE:   41612218

BTB TOTAL     ACCESS:   31329121  HIT:   29031204  MISS:    2297917  HIT %:    92.6652  MISS %:    7.33476   MPKI: 11.4896
BTB BRANCH_DIRECT_JUMP	ACCESS:    1094608  HIT:    1094408  MISS:        200
BTB BRANCH_INDIRECT	ACCESS:       6209  HIT:       4182  MISS:       2027
BTB BRANCH_CONDITIONAL	ACCESS:   18688882  HIT:   18687006  MISS:       1876
BTB BRANCH_DIRECT_CALL	ACCESS:    5769438  HIT:    5768610  MISS:        828
BTB BRANCH_INDIRECT_CALL	ACCESS:        272  HIT:        218  MISS:         54
BTB BRANCH_RETURN	ACCESS:    5769712  HIT:    3476780  MISS:    2292932
BTB BRANCH_OTHER ACCESS:          0  HIT:          0  MISS:          0

L2C TOTAL     ACCESS:    3244531  HIT:    2477103  MISS:     767428  HIT %:     76.347  MISS %:     23.653   MPKI: 3.83714
L2C LOAD      ACCESS:     435233  HIT:     378513  MISS:      56720  HIT %:    86.9679  MISS %:    13.0321   MPKI: 0.2836
L2C DATA LOAD MPKI: 0.270165
L2C INSTRUCTION LOAD MPKI: 0.013435
L2C RFO       ACCESS:     430426  HIT:      64772  MISS:     365654  HIT %:    15.0483  MISS %:    84.9517   MPKI: 1.82827
L2C PREFETCH  ACCESS:    1853248  HIT:    1512226  MISS:     341022  HIT %:    81.5987  MISS %:    18.4013   MPKI: 1.70511
L2C DATA PREFETCH MPKI: 1.70511
L2C INSTRUCTION PREFETCH MPKI: 0
L2C WRITEBACK ACCESS:     491596  HIT:     489294  MISS:       2302  HIT %:    99.5317  MISS %:   0.468271   MPKI: 0.01151
L2C LOAD TRANSLATION ACCESS:       4382  HIT:       3170  MISS:       1212  HIT %:    72.3414  MISS %:    27.6586   MPKI: 0.00606
L2C TRANSLATION FROM L1D PREFETCHER ACCESS:      29646  HIT:      29128  MISS:        518  HIT %:    98.2527  MISS %:    1.74728   MPKI: 0.00259
L2C PREFETCH  REQUESTED:          0  ISSUED:          0  USEFUL:      16313  USELESS:     325266
L2C USEFUL LOAD PREFETCHES:      16313 PREFETCH ISSUED TO LOWER LEVEL:     346018  ACCURACY: 4.71449
L2C TIMELY PREFETCHES:      16313 LATE PREFETCHES: 4994 DROPPED PREFETCHES: 0
L2C PREFETCHES SAME FILL-ORIGIN LEVEL: 96564 DIFFERENT FILL-ORIGIN LEVEL: 0
L2C AVERAGE MISS LATENCY: 212.659 cycles
L2C RQ	ACCESS:     899701	FORWARD:          0	MERGED:          0	TO_CACHE:     899688
L2C WQ	ACCESS:     491596	FORWARD:         13	MERGED:          0	TO_CACHE:     491596
L2C PQ	ACCESS:    2197791	FORWARD:          0	MERGED:       1130	TO_CACHE:    2196661

L2C Instructions Evicting Data 2586
L2C Translations Evicting Data 1695
L2C Data Evicting Data 754507
L2C Instructions Evicting Instructions 92
L2C Translations Evicting Instructions 8
L2C Data Evicting Instructions 2847
L2C Instructions Evicting Translations 8
L2C Translations Evicting Translations 2
L2C Data Evicting Translations 1856
L2C Dense regions hint from L2: 0
PSCL5 TOTAL     ACCESS:      34028  HIT:      34028  MISS:          0  HIT %:        100  MISS %:          0   MPKI: 0
PSCL5 LOAD TRANSLATION ACCESS:       4382  HIT:       4382  MISS:          0  HIT %:        100  MISS %:          0   MPKI: 0
PSCL5 TRANSLATION FROM L1D PREFETCHER ACCESS:      29646  HIT:      29646  MISS:          0  HIT %:        100  MISS %:          0   MPKI: 0
PSCL5 PREFETCH  REQUESTED:          0  ISSUED:          0  USEFUL:          0  USELESS:          0
PSCL5 USEFUL LOAD PREFETCHES:          0 PREFETCH ISSUED TO LOWER LEVEL:          0  ACCURACY: -nan
PSCL5 TIMELY PREFETCHES:          0 LATE PREFETCHES: 0 DROPPED PREFETCHES: 0
PSCL5 PREFETCHES SAME FILL-ORIGIN LEVEL: 0 DIFFERENT FILL-ORIGIN LEVEL: 0

PSCL4 TOTAL     ACCESS:      34028  HIT:      34028  MISS:          0  HIT %:        100  MISS %:          0   MPKI: 0
PSCL4 LOAD TRANSLATION ACCESS:       4382  HIT:       4382  MISS:          0  HIT %:        100  MISS %:          0   MPKI: 0
PSCL4 TRANSLATION FROM L1D PREFETCHER ACCESS:      29646  HIT:      29646  MISS:          0  HIT %:        100  MISS %:          0   MPKI: 0
PSCL4 PREFETCH  REQUESTED:          0  ISSUED:          0  USEFUL:          0  USELESS:          0
PSCL4 USEFUL LOAD PREFETCHES:          0 PREFETCH ISSUED TO LOWER LEVEL:          0  ACCURACY: -nan
PSCL4 TIMELY PREFETCHES:          0 LATE PREFETCHES: 0 DROPPED PREFETCHES: 0
PSCL4 PREFETCHES SAME FILL-ORIGIN LEVEL: 0 DIFFERENT FILL-ORIGIN LEVEL: 0

PSCL3 TOTAL     ACCESS:      34028  HIT:      34028  MISS:          0  HIT %:        100  MISS %:          0   MPKI: 0
PSCL3 LOAD TRANSLATION ACCESS:       4382  HIT:       4382  MISS:          0  HIT %:        100  MISS %:          0   MPKI: 0
PSCL3 TRANSLATION FROM L1D PREFETCHER ACCESS:      29646  HIT:      29646  MISS:          0  HIT %:        100  MISS %:          0   MPKI: 0
PSCL3 PREFETCH  REQUESTED:          0  ISSUED:          0  USEFUL:          0  USELESS:          0
PSCL3 USEFUL LOAD PREFETCHES:          0 PREFETCH ISSUED TO LOWER LEVEL:          0  ACCURACY: -nan
PSCL3 TIMELY PREFETCHES:          0 LATE PREFETCHES: 0 DROPPED PREFETCHES: 0
PSCL3 PREFETCHES SAME FILL-ORIGIN LEVEL: 0 DIFFERENT FILL-ORIGIN LEVEL: 0

PSCL2 TOTAL     ACCESS:      34028  HIT:      34026  MISS:          2  HIT %:    99.9941  MISS %: 0.00587751   MPKI: 1e-05
PSCL2 LOAD TRANSLATION ACCESS:       4382  HIT:       4380  MISS:          2  HIT %:    99.9544  MISS %:  0.0456413   MPKI: 1e-05
PSCL2 TRANSLATION FROM L1D PREFETCHER ACCESS:      29646  HIT:      29646  MISS:          0  HIT %:        100  MISS %:          0   MPKI: 0
PSCL2 PREFETCH  REQUESTED:          0  ISSUED:          0  USEFUL:          0  USELESS:          0
PSCL2 USEFUL LOAD PREFETCHES:          0 PREFETCH ISSUED TO LOWER LEVEL:          0  ACCURACY: -nan
PSCL2 TIMELY PREFETCHES:          0 LATE PREFETCHES: 0 DROPPED PREFETCHES: 0
PSCL2 PREFETCHES SAME FILL-ORIGIN LEVEL: 0 DIFFERENT FILL-ORIGIN LEVEL: 0

LLC TOTAL     ACCESS:    1136426  HIT:     278684  MISS:     857742  HIT %:    24.5228  MISS %:    75.4772   MPKI: 4.28871
LLC LOAD      ACCESS:      51726  HIT:       9060  MISS:      42666  HIT %:    17.5154  MISS %:    82.4846   MPKI: 0.21333
LLC RFO       ACCESS:     365654  HIT:      37969  MISS:     327685  HIT %:    10.3839  MISS %:    89.6161   MPKI: 1.63843
LLC PREFETCH  ACCESS:     346016  HIT:      44402  MISS:     301614  HIT %:    12.8324  MISS %:    87.1676   MPKI: 1.50807
LLC WRITEBACK ACCESS:     371300  HIT:     186999  MISS:     184301  HIT %:    50.3633  MISS %:    49.6367   MPKI: 0.921505
LLC LOAD TRANSLATION ACCESS:       1212  HIT:        202  MISS:       1010  HIT %:    16.6667  MISS %:    83.3333   MPKI: 0.00505
LLC TRANSLATION FROM L1D PREFETCHER ACCESS:        518  HIT:         52  MISS:        466  HIT %:    10.0386  MISS %:    89.9614   MPKI: 0.00233
LLC PREFETCH  REQUESTED:          0  ISSUED:          0  USEFUL:       2091  USELESS:     302352
LLC USEFUL LOAD PREFETCHES:       2091 PREFETCH ISSUED TO LOWER LEVEL:     301615  ACCURACY: 0.693268
LLC TIMELY PREFETCHES:       2091 LATE PREFETCHES: 0 DROPPED PREFETCHES: 0
LLC PREFETCHES SAME FILL-ORIGIN LEVEL: 0 DIFFERENT FILL-ORIGIN LEVEL: 0
LLC AVERAGE MISS LATENCY: 163.917 cycles
LLC RQ	ACCESS:     419111	FORWARD:          0	MERGED:          0	TO_CACHE:     419111
LLC WQ	ACCESS:     371301	FORWARD:          0	MERGED:          0	TO_CACHE:     371301
LLC PQ	ACCESS:     346018	FORWARD:          0	MERGED:          0	TO_CACHE:     346018

LLC Dense regions hint to LLC: 0

RAW hits: 1855624
Loads Generated: 55430315
Loads sent to L1D: 53574690
Stores Generated: 25679661
Stores sent to L1D: 25679663
Major fault: 0 Minor fault: 2275
Allocated PAGES: 2275

DRAM Statistics
 CHANNEL 0
 RQ ROW_BUFFER_HIT:     139313  ROW_BUFFER_MISS:     533938
 DBUS_CONGESTED:        101
 WQ ROW_BUFFER_HIT:      49152  ROW_BUFFER_MISS:     252114  FULL:        107

 AVG_CONGESTED_CYCLE: 5
 All warmup complete: 2
Channel 0 Bank busy for read cycles: 0
Channel 0 Bank busy for write cycles: 0
Channel 0
Rank 0
0banks busy for read cycles: 511905953
0banks busy for write cycles: 2258
1banks busy for read cycles: 10411402
1banks busy for write cycles: 398509
2banks busy for read cycles: 15937035
2banks busy for write cycles: 236120
3banks busy for read cycles: 5632901
3banks busy for write cycles: 178009
4banks busy for read cycles: 3457381
4banks busy for write cycles: 167542
5banks busy for read cycles: 837770
5banks busy for write cycles: 143382
6banks busy for read cycles: 450375
6banks busy for write cycles: 189905
7banks busy for read cycles: 416854
7banks busy for write cycles: 621006
8banks busy for read cycles: 721584
8banks busy for write cycles: 7014424

CPU 0 Branch Prediction Accuracy: 90.5516% MPKI: 9.7396 Average ROB Occupancy at Mispredict: 23.6886
Branch types
NOT_BRANCH: 166743419 83.3717%
BRANCH_DIRECT_JUMP: 1094608 0.547304%
BRANCH_INDIRECT: 6209 0.0031045%
BRANCH_CONDITIONAL: 20616346 10.3082%
BRANCH_DIRECT_CALL: 5769438 2.88472%
BRANCH_INDIRECT_CALL: 272 0.000136%
BRANCH_RETURN: 5769712 2.88486%
BRANCH_OTHER: 0 0%

DRAM PAGES: 1048576
Allocated PAGES: 2275
