 (TOTAL 523355 bits 511 Kbits) 
*** ChampSim Multicore Out-of-Order Simulator ***

Warmup Instructions: 50000000
Simulation Instructions: 200000000
Number of CPUs: 1
LLC sets: 2048
LLC ways: 16
Off-chip DRAM Size: 4096 MB Channels: 1 Width: 64-bit Data Rate: 6400 MT/s
argv[0]: ./ChampSim/Berti/bin/tagescl-no-vberti-no-no-no-no-no-lru-lru-lru-srrip-drrip-lru-lru-lru-1core-no
argv[1]: -warmup_instructions
argv[2]: 50000000
argv[3]: -simulation_instructions
argv[4]: 200000000
argv[5]: -traces
argv[6]: traces/spec2k17_ten/641.leela_s-149B.champsimtrace.xz
CPU 0 runs traces/spec2k17_ten/641.leela_s-149B.champsimtrace.xz
.xz
CPU 0 Tage branch predictor
BTB has LRU replacement policy
ITLB has LRU replacement policy
DTLB has LRU replacement policy
STLB has LRU replacement policy
L1I has LRU replacement policy
History Sets: 8
History Ways: 16
BERTI Size: 16
BERTI Stride Size: 16
L1D has LRU replacement policy
Initialize SRRIP state for L2C
Initialize DRRIP state for LLC
Heartbeat CPU 0 instructions: 10000002 cycles: 3153793 heartbeat IPC: 3.17079 cumulative IPC: 3.17079 (Simulation time: 0 hr 6 min 11 sec) 
Heartbeat CPU 0 instructions: 20000002 cycles: 6880654 heartbeat IPC: 2.68322 cumulative IPC: 2.9067 (Simulation time: 0 hr 15 min 26 sec) 
Heartbeat CPU 0 instructions: 30000003 cycles: 10198160 heartbeat IPC: 3.01431 cumulative IPC: 2.94171 (Simulation time: 0 hr 22 min 27 sec) 
Heartbeat CPU 0 instructions: 40000000 cycles: 13429123 heartbeat IPC: 3.09505 cumulative IPC: 2.9786 (Simulation time: 0 hr 29 min 24 sec) 
Heartbeat CPU 0 instructions: 50000003 cycles: 16660854 heartbeat IPC: 3.09432 cumulative IPC: 3.00105 (Simulation time: 0 hr 35 min 54 sec) 

Warmup complete CPU 0 instructions: 50000003 cycles: 16660854 (Simulation time: 0 hr 35 min 54 sec) 

Heartbeat CPU 0 instructions: 60000001 cycles: 43658727 heartbeat IPC: 0.370399 cumulative IPC: 0.370399 (Simulation time: 0 hr 44 min 38 sec) 
Heartbeat CPU 0 instructions: 70000000 cycles: 70586530 heartbeat IPC: 0.371363 cumulative IPC: 0.370881 (Simulation time: 0 hr 52 min 34 sec) 
Heartbeat CPU 0 instructions: 80000000 cycles: 97490080 heartbeat IPC: 0.371698 cumulative IPC: 0.371153 (Simulation time: 1 hr 0 min 10 sec) 
Heartbeat CPU 0 instructions: 90000000 cycles: 124340622 heartbeat IPC: 0.372432 cumulative IPC: 0.371472 (Simulation time: 1 hr 8 min 3 sec) 
Heartbeat CPU 0 instructions: 100000001 cycles: 151067391 heartbeat IPC: 0.374157 cumulative IPC: 0.372006 (Simulation time: 1 hr 16 min 39 sec) 
Heartbeat CPU 0 instructions: 110000000 cycles: 177990176 heartbeat IPC: 0.371433 cumulative IPC: 0.37191 (Simulation time: 1 hr 24 min 15 sec) 
Heartbeat CPU 0 instructions: 120000001 cycles: 204699156 heartbeat IPC: 0.374406 cumulative IPC: 0.372265 (Simulation time: 1 hr 30 min 20 sec) 
Heartbeat CPU 0 instructions: 130000001 cycles: 231504682 heartbeat IPC: 0.373057 cumulative IPC: 0.372363 (Simulation time: 1 hr 34 min 58 sec) 
Heartbeat CPU 0 instructions: 140000000 cycles: 258328009 heartbeat IPC: 0.37281 cumulative IPC: 0.372413 (Simulation time: 1 hr 39 min 53 sec) 
Heartbeat CPU 0 instructions: 150000000 cycles: 284926371 heartbeat IPC: 0.375963 cumulative IPC: 0.372765 (Simulation time: 1 hr 44 min 3 sec) 
Heartbeat CPU 0 instructions: 160000003 cycles: 311527207 heartbeat IPC: 0.375928 cumulative IPC: 0.37305 (Simulation time: 1 hr 49 min 26 sec) 
Heartbeat CPU 0 instructions: 170000003 cycles: 338127680 heartbeat IPC: 0.375933 cumulative IPC: 0.373289 (Simulation time: 1 hr 53 min 55 sec) 
Heartbeat CPU 0 instructions: 180000000 cycles: 364893747 heartbeat IPC: 0.373607 cumulative IPC: 0.373313 (Simulation time: 1 hr 57 min 35 sec) 
Heartbeat CPU 0 instructions: 190000000 cycles: 391373705 heartbeat IPC: 0.377644 cumulative IPC: 0.373619 (Simulation time: 2 hr 1 min 23 sec) 
Heartbeat CPU 0 instructions: 200000003 cycles: 417852139 heartbeat IPC: 0.377666 cumulative IPC: 0.373886 (Simulation time: 2 hr 4 min 30 sec) 
Heartbeat CPU 0 instructions: 210000000 cycles: 444226055 heartbeat IPC: 0.379162 cumulative IPC: 0.374212 (Simulation time: 2 hr 7 min 7 sec) 
Heartbeat CPU 0 instructions: 220000000 cycles: 470682678 heartbeat IPC: 0.377977 cumulative IPC: 0.374431 (Simulation time: 2 hr 9 min 46 sec) 
Heartbeat CPU 0 instructions: 230000000 cycles: 497144575 heartbeat IPC: 0.377902 cumulative IPC: 0.374622 (Simulation time: 2 hr 11 min 51 sec) 
Heartbeat CPU 0 instructions: 240000000 cycles: 523609245 heartbeat IPC: 0.377862 cumulative IPC: 0.374792 (Simulation time: 2 hr 13 min 51 sec) 
Heartbeat CPU 0 instructions: 250000000 cycles: 550203336 heartbeat IPC: 0.376023 cumulative IPC: 0.374853 (Simulation time: 2 hr 15 min 22 sec) 
Finished CPU 0 instructions: 200000000 cycles: 533542520 cumulative IPC: 0.374853 (Simulation time: 2 hr 15 min 22 sec) 

ChampSim completed all CPUs

Region of Interest Statistics

CPU 0 cumulative IPC: 0.374853 instructions: 200000000 cycles: 533542520
ITLB TOTAL     ACCESS:   35119456  HIT:   35119456  MISS:          0  HIT %:        100  MISS %:          0   MPKI: 0
ITLB LOAD TRANSLATION ACCESS:   35119456  HIT:   35119456  MISS:          0  HIT %:        100  MISS %:          0   MPKI: 0
ITLB PREFETCH  REQUESTED:          0  ISSUED:          0  USEFUL:          0  USELESS:          0
ITLB USEFUL LOAD PREFETCHES:          0 PREFETCH ISSUED TO LOWER LEVEL:          0  ACCURACY: -nan
ITLB TIMELY PREFETCHES:          0 LATE PREFETCHES: 0 DROPPED PREFETCHES: 0
ITLB PREFETCHES SAME FILL-ORIGIN LEVEL: 0 DIFFERENT FILL-ORIGIN LEVEL: 0
ITLB AVERAGE MISS LATENCY: -nan cycles
ITLB RQ	ACCESS:   40208081	FORWARD:          0	MERGED:    5088626	TO_CACHE:   35119455

DTLB TOTAL     ACCESS:   55297763  HIT:   55212862  MISS:      84901  HIT %:    99.8465  MISS %:   0.153534   MPKI: 0.424505
DTLB LOAD TRANSLATION ACCESS:   55297763  HIT:   55212862  MISS:      84901  HIT %:    99.8465  MISS %:   0.153534   MPKI: 0.424505
DTLB PREFETCH  REQUESTED:          0  ISSUED:          0  USEFUL:          0  USELESS:          0
DTLB USEFUL LOAD PREFETCHES:          0 PREFETCH ISSUED TO LOWER LEVEL:          0  ACCURACY: -nan
DTLB TIMELY PREFETCHES:          0 LATE PREFETCHES: 0 DROPPED PREFETCHES: 0
DTLB PREFETCHES SAME FILL-ORIGIN LEVEL: 0 DIFFERENT FILL-ORIGIN LEVEL: 0
DTLB AVERAGE MISS LATENCY: 9.35395 cycles
DTLB RQ	ACCESS:   62900627	FORWARD:          0	MERGED:    7600964	TO_CACHE:   55299663

STLB TOTAL     ACCESS:    1286682  HIT:    1286360  MISS:        322  HIT %:     99.975  MISS %:  0.0250256   MPKI: 0.00161
STLB LOAD TRANSLATION ACCESS:      84901  HIT:      84579  MISS:        322  HIT %:    99.6207  MISS %:   0.379265   MPKI: 0.00161
STLB TRANSLATION FROM L1D PREFETCHER ACCESS:    1201781  HIT:    1201781  MISS:          0  HIT %:        100  MISS %:          0   MPKI: 0
STLB PREFETCH  REQUESTED:          0  ISSUED:          0  USEFUL:          0  USELESS:          0
STLB USEFUL LOAD PREFETCHES:          0 PREFETCH ISSUED TO LOWER LEVEL:          0  ACCURACY: -nan
STLB TIMELY PREFETCHES:          0 LATE PREFETCHES: 0 DROPPED PREFETCHES: 11999
STLB PREFETCHES SAME FILL-ORIGIN LEVEL: 0 DIFFERENT FILL-ORIGIN LEVEL: 0
STLB AVERAGE MISS LATENCY: 131.615 cycles
STLB RQ	ACCESS:    5216602	FORWARD:          0	MERGED:    3917578	TO_CACHE:    1299024

STLB Hit, L1D data hit: 0
STLB Hit, L2C data hit: 0
STLB Hit, LLC data hit: 0
STLB Hit, LLC data miss: 0
STLB STLB hints to L2: 0
L1D TOTAL     ACCESS:   66395001  HIT:   66125920  MISS:     269081  HIT %:    99.5947  MISS %:   0.405273   MPKI: 1.3454
L1D LOAD      ACCESS:   39266769  HIT:   39064000  MISS:     202769  HIT %:    99.4836  MISS %:   0.516388   MPKI: 1.01385
L1D RFO       ACCESS:   23615189  HIT:   23577155  MISS:      38034  HIT %:    99.8389  MISS %:   0.161057   MPKI: 0.19017
L1D PREFETCH  ACCESS:    3513043  HIT:    3484765  MISS:      28278  HIT %:    99.1951  MISS %:   0.804943   MPKI: 0.14139
L1D PREFETCH  REQUESTED:   10525214  ISSUED:   10525214  USEFUL:      15237  USELESS:      13026
L1D USEFUL LOAD PREFETCHES:      15237 PREFETCH ISSUED TO LOWER LEVEL:    1632272  ACCURACY: 0.933484
L1D TIMELY PREFETCHES:      15237 LATE PREFETCHES: 69 DROPPED PREFETCHES: 14077
L1D PREFETCHES SAME FILL-ORIGIN LEVEL: 28347 DIFFERENT FILL-ORIGIN LEVEL: 1603925
L1D AVERAGE MISS LATENCY: 16.1481 cycles
L1D RQ	ACCESS:   52022020	FORWARD:          0	MERGED:   10540509	TO_CACHE:   39268448
L1D WQ	ACCESS:   24000937	FORWARD:    2213132	MERGED:     368758	TO_CACHE:   23632179
L1D PQ	ACCESS:    5393513	FORWARD:          0	MERGED:     261743	TO_CACHE:    5131701

L1D UNIQUE REGIONS ACCESSED: 0
L1D REGIONS CONFLICTS: 0
L1D Cross Page Prefetch Requests: 1164954
L1D Same Page Prefetch Requests: 8948446
L1D ROI Sum of L1D PQ occupancy: 73667743
L1D PREFETCHES PUSHED FROM L2C: 0
L1I TOTAL     ACCESS:   40189471  HIT:   40147717  MISS:      41754  HIT %:    99.8961  MISS %:   0.103893   MPKI: 0.20877
L1I LOAD      ACCESS:   40189471  HIT:   40147717  MISS:      41754  HIT %:    99.8961  MISS %:   0.103893   MPKI: 0.20877
L1I PREFETCH  REQUESTED:          0  ISSUED:          0  USEFUL:          0  USELESS:          0
L1I USEFUL LOAD PREFETCHES:          0 PREFETCH ISSUED TO LOWER LEVEL:          0  ACCURACY: -nan
L1I TIMELY PREFETCHES:          0 LATE PREFETCHES: 0 DROPPED PREFETCHES: 0
L1I PREFETCHES SAME FILL-ORIGIN LEVEL: 0 DIFFERENT FILL-ORIGIN LEVEL: 0
L1I AVERAGE MISS LATENCY: 14.0169 cycles
L1I RQ	ACCESS:   57294776	FORWARD:          0	MERGED:   17086695	TO_CACHE:   40208081

BTB TOTAL     ACCESS:   31355940  HIT:   29137042  MISS:    2218898  HIT %:    92.9235  MISS %:    7.07648   MPKI: 11.0945
BTB BRANCH_DIRECT_JUMP	ACCESS:    1150388  HIT:    1150314  MISS:         74
BTB BRANCH_INDIRECT	ACCESS:       4209  HIT:       4065  MISS:        144
BTB BRANCH_CONDITIONAL	ACCESS:   18692451  HIT:   18688527  MISS:       3924
BTB BRANCH_DIRECT_CALL	ACCESS:    5754446  HIT:    5752632  MISS:       1814
BTB BRANCH_INDIRECT_CALL	ACCESS:          0  HIT:          0  MISS:          0
BTB BRANCH_RETURN	ACCESS:    5754446  HIT:    3541504  MISS:    2212942
BTB BRANCH_OTHER ACCESS:          0  HIT:          0  MISS:          0

L2C TOTAL     ACCESS:    1982827  HIT:    1978235  MISS:       4592  HIT %:    99.7684  MISS %:   0.231589   MPKI: 0.02296
L2C LOAD      ACCESS:     244451  HIT:     242137  MISS:       2314  HIT %:    99.0534  MISS %:   0.946611   MPKI: 0.01157
L2C DATA LOAD MPKI: 0.011515
L2C INSTRUCTION LOAD MPKI: 5.5e-05
L2C RFO       ACCESS:      38033  HIT:      37062  MISS:        971  HIT %:     97.447  MISS %:    2.55305   MPKI: 0.004855
L2C PREFETCH  ACCESS:    1632177  HIT:    1631033  MISS:       1144  HIT %:    99.9299  MISS %:  0.0700904   MPKI: 0.00572
L2C DATA PREFETCH MPKI: 0.00572
L2C INSTRUCTION PREFETCH MPKI: 0
L2C WRITEBACK ACCESS:      55845  HIT:      55810  MISS:         35  HIT %:    99.9373  MISS %:  0.0626735   MPKI: 0.000175
L2C LOAD TRANSLATION ACCESS:        322  HIT:        219  MISS:        103  HIT %:    68.0124  MISS %:    31.9876   MPKI: 0.000515
L2C TRANSLATION FROM L1D PREFETCHER ACCESS:      11999  HIT:      11974  MISS:         25  HIT %:    99.7916  MISS %:   0.208351   MPKI: 0.000125
L2C PREFETCH  REQUESTED:          0  ISSUED:          0  USEFUL:        112  USELESS:       1200
L2C USEFUL LOAD PREFETCHES:        112 PREFETCH ISSUED TO LOWER LEVEL:       1146  ACCURACY: 9.77312
L2C TIMELY PREFETCHES:        112 LATE PREFETCHES: 2 DROPPED PREFETCHES: 0
L2C PREFETCHES SAME FILL-ORIGIN LEVEL: 1022 DIFFERENT FILL-ORIGIN LEVEL: 0
L2C AVERAGE MISS LATENCY: 75.968 cycles
L2C RQ	ACCESS:     294809	FORWARD:          0	MERGED:          0	TO_CACHE:     294805
L2C WQ	ACCESS:      55845	FORWARD:          4	MERGED:          0	TO_CACHE:      55845
L2C PQ	ACCESS:    1632272	FORWARD:          0	MERGED:         80	TO_CACHE:    1632192

L2C Instructions Evicting Data 10
L2C Translations Evicting Data 121
L2C Data Evicting Data 4239
L2C Instructions Evicting Instructions 1
L2C Translations Evicting Instructions 7
L2C Data Evicting Instructions 120
L2C Instructions Evicting Translations 0
L2C Translations Evicting Translations 0
L2C Data Evicting Translations 59
L2C Dense regions hint from L2: 0
PSCL5 TOTAL     ACCESS:      12321  HIT:      12321  MISS:          0  HIT %:        100  MISS %:          0   MPKI: 0
PSCL5 LOAD TRANSLATION ACCESS:        322  HIT:        322  MISS:          0  HIT %:        100  MISS %:          0   MPKI: 0
PSCL5 TRANSLATION FROM L1D PREFETCHER ACCESS:      11999  HIT:      11999  MISS:          0  HIT %:        100  MISS %:          0   MPKI: 0
PSCL5 PREFETCH  REQUESTED:          0  ISSUED:          0  USEFUL:          0  USELESS:          0
PSCL5 USEFUL LOAD PREFETCHES:          0 PREFETCH ISSUED TO LOWER LEVEL:          0  ACCURACY: -nan
PSCL5 TIMELY PREFETCHES:          0 LATE PREFETCHES: 0 DROPPED PREFETCHES: 0
PSCL5 PREFETCHES SAME FILL-ORIGIN LEVEL: 0 DIFFERENT FILL-ORIGIN LEVEL: 0

PSCL4 TOTAL     ACCESS:      12321  HIT:      12321  MISS:          0  HIT %:        100  MISS %:          0   MPKI: 0
PSCL4 LOAD TRANSLATION ACCESS:        322  HIT:        322  MISS:          0  HIT %:        100  MISS %:          0   MPKI: 0
PSCL4 TRANSLATION FROM L1D PREFETCHER ACCESS:      11999  HIT:      11999  MISS:          0  HIT %:        100  MISS %:          0   MPKI: 0
PSCL4 PREFETCH  REQUESTED:          0  ISSUED:          0  USEFUL:          0  USELESS:          0
PSCL4 USEFUL LOAD PREFETCHES:          0 PREFETCH ISSUED TO LOWER LEVEL:          0  ACCURACY: -nan
PSCL4 TIMELY PREFETCHES:          0 LATE PREFETCHES: 0 DROPPED PREFETCHES: 0
PSCL4 PREFETCHES SAME FILL-ORIGIN LEVEL: 0 DIFFERENT FILL-ORIGIN LEVEL: 0

PSCL3 TOTAL     ACCESS:      12321  HIT:      12321  MISS:          0  HIT %:        100  MISS %:          0   MPKI: 0
PSCL3 LOAD TRANSLATION ACCESS:        322  HIT:        322  MISS:          0  HIT %:        100  MISS %:          0   MPKI: 0
PSCL3 TRANSLATION FROM L1D PREFETCHER ACCESS:      11999  HIT:      11999  MISS:          0  HIT %:        100  MISS %:          0   MPKI: 0
PSCL3 PREFETCH  REQUESTED:          0  ISSUED:          0  USEFUL:          0  USELESS:          0
PSCL3 USEFUL LOAD PREFETCHES:          0 PREFETCH ISSUED TO LOWER LEVEL:          0  ACCURACY: -nan
PSCL3 TIMELY PREFETCHES:          0 LATE PREFETCHES: 0 DROPPED PREFETCHES: 0
PSCL3 PREFETCHES SAME FILL-ORIGIN LEVEL: 0 DIFFERENT FILL-ORIGIN LEVEL: 0

PSCL2 TOTAL     ACCESS:      12298  HIT:      12298  MISS:          0  HIT %:        100  MISS %:          0   MPKI: 0
PSCL2 LOAD TRANSLATION ACCESS:        322  HIT:        322  MISS:          0  HIT %:        100  MISS %:          0   MPKI: 0
PSCL2 TRANSLATION FROM L1D PREFETCHER ACCESS:      11976  HIT:      11976  MISS:          0  HIT %:        100  MISS %:          0   MPKI: 0
PSCL2 PREFETCH  REQUESTED:          0  ISSUED:          0  USEFUL:          0  USELESS:          0
PSCL2 USEFUL LOAD PREFETCHES:          0 PREFETCH ISSUED TO LOWER LEVEL:          0  ACCURACY: -nan
PSCL2 TIMELY PREFETCHES:          0 LATE PREFETCHES: 0 DROPPED PREFETCHES: 0
PSCL2 PREFETCHES SAME FILL-ORIGIN LEVEL: 0 DIFFERENT FILL-ORIGIN LEVEL: 0

LLC TOTAL     ACCESS:       6978  HIT:       5680  MISS:       1298  HIT %:    81.3987  MISS %:    18.6013   MPKI: 0.00649
LLC LOAD      ACCESS:       2312  HIT:       1117  MISS:       1195  HIT %:    48.3131  MISS %:    51.6869   MPKI: 0.005975
LLC RFO       ACCESS:        971  HIT:        965  MISS:          6  HIT %:    99.3821  MISS %:    0.61792   MPKI: 3e-05
LLC PREFETCH  ACCESS:       1146  HIT:       1083  MISS:         63  HIT %:    94.5026  MISS %:    5.49738   MPKI: 0.000315
LLC WRITEBACK ACCESS:       2421  HIT:       2418  MISS:          3  HIT %:    99.8761  MISS %:   0.123916   MPKI: 1.5e-05
LLC LOAD TRANSLATION ACCESS:        103  HIT:         81  MISS:         22  HIT %:    78.6408  MISS %:    21.3592   MPKI: 0.00011
LLC TRANSLATION FROM L1D PREFETCHER ACCESS:         25  HIT:         16  MISS:          9  HIT %:         64  MISS %:         36   MPKI: 4.5e-05
LLC PREFETCH  REQUESTED:          0  ISSUED:          0  USEFUL:        879  USELESS:        103
LLC USEFUL LOAD PREFETCHES:        879 PREFETCH ISSUED TO LOWER LEVEL:         63  ACCURACY: 1395.24
LLC TIMELY PREFETCHES:        879 LATE PREFETCHES: 0 DROPPED PREFETCHES: 0
LLC PREFETCHES SAME FILL-ORIGIN LEVEL: 0 DIFFERENT FILL-ORIGIN LEVEL: 0
LLC AVERAGE MISS LATENCY: 163.444 cycles
LLC RQ	ACCESS:       3411	FORWARD:          0	MERGED:          0	TO_CACHE:       3411
LLC WQ	ACCESS:       2421	FORWARD:          0	MERGED:          0	TO_CACHE:       2421
LLC PQ	ACCESS:       1146	FORWARD:          0	MERGED:          0	TO_CACHE:       1146

LLC Dense regions hint to LLC: 0

RAW hits: 1863923
Loads Generated: 53885944
Loads sent to L1D: 52022020
Stores Generated: 24000930
Stores sent to L1D: 24000937
Major fault: 0 Minor fault: 1195
Allocated PAGES: 1195

DRAM Statistics
 CHANNEL 0
 RQ ROW_BUFFER_HIT:         80  ROW_BUFFER_MISS:       1215
 DBUS_CONGESTED:          0
 WQ ROW_BUFFER_HIT:          4  ROW_BUFFER_MISS:        399  FULL:          0

 AVG_CONGESTED_CYCLE: -
 All warmup complete: 2
Channel 0 Bank busy for read cycles: 0
Channel 0 Bank busy for write cycles: 0
Channel 0
Rank 0
0banks busy for read cycles: 533295566
0banks busy for write cycles: 402
1banks busy for read cycles: 186136
1banks busy for write cycles: 60229
2banks busy for read cycles: 57
2banks busy for write cycles: 131
3banks busy for read cycles: 0
3banks busy for write cycles: 0
4banks busy for read cycles: 0
4banks busy for write cycles: 0
5banks busy for read cycles: 0
5banks busy for write cycles: 0
6banks busy for read cycles: 0
6banks busy for write cycles: 0
7banks busy for read cycles: 0
7banks busy for write cycles: 0
8banks busy for read cycles: 0
8banks busy for write cycles: 0

CPU 0 Branch Prediction Accuracy: 90.7149% MPKI: 9.48642 Average ROB Occupancy at Mispredict: 24.2303
Branch types
NOT_BRANCH: 166902414 83.4512%
BRANCH_DIRECT_JUMP: 1150388 0.575194%
BRANCH_INDIRECT: 4209 0.0021045%
BRANCH_CONDITIONAL: 20433729 10.2169%
BRANCH_DIRECT_CALL: 5754446 2.87722%
BRANCH_INDIRECT_CALL: 0 0%
BRANCH_RETURN: 5754446 2.87722%
BRANCH_OTHER: 0 0%

DRAM PAGES: 1048576
Allocated PAGES: 1195
