 (TOTAL 523355 bits 511 Kbits) 
*** ChampSim Multicore Out-of-Order Simulator ***

Warmup Instructions: 50000000
Simulation Instructions: 200000000
Number of CPUs: 1
LLC sets: 2048
LLC ways: 16
Off-chip DRAM Size: 4096 MB Channels: 1 Width: 64-bit Data Rate: 6400 MT/s
argv[0]: ./ChampSim/Berti/bin/tagescl-no-vberti-no-no-no-no-no-lru-lru-lru-srrip-drrip-lru-lru-lru-1core-no
argv[1]: -warmup_instructions
argv[2]: 50000000
argv[3]: -simulation_instructions
argv[4]: 200000000
argv[5]: -traces
argv[6]: traces/spec2k17_ten/641.leela_s-334B.champsimtrace.xz
CPU 0 runs traces/spec2k17_ten/641.leela_s-334B.champsimtrace.xz
.xz
CPU 0 Tage branch predictor
BTB has LRU replacement policy
ITLB has LRU replacement policy
DTLB has LRU replacement policy
STLB has LRU replacement policy
L1I has LRU replacement policy
History Sets: 8
History Ways: 16
BERTI Size: 16
BERTI Stride Size: 16
L1D has LRU replacement policy
Initialize SRRIP state for L2C
Initialize DRRIP state for LLC
Heartbeat CPU 0 instructions: 10000002 cycles: 3249283 heartbeat IPC: 3.0776 cumulative IPC: 3.0776 (Simulation time: 0 hr 7 min 40 sec) 
Heartbeat CPU 0 instructions: 20000002 cycles: 6501149 heartbeat IPC: 3.07516 cumulative IPC: 3.07638 (Simulation time: 0 hr 15 min 49 sec) 
Heartbeat CPU 0 instructions: 30000001 cycles: 9749496 heartbeat IPC: 3.07849 cumulative IPC: 3.07708 (Simulation time: 0 hr 24 min 26 sec) 
Heartbeat CPU 0 instructions: 40000001 cycles: 12997497 heartbeat IPC: 3.07882 cumulative IPC: 3.07752 (Simulation time: 0 hr 32 min 55 sec) 
Heartbeat CPU 0 instructions: 50000003 cycles: 16252297 heartbeat IPC: 3.07239 cumulative IPC: 3.07649 (Simulation time: 0 hr 39 min 39 sec) 

Warmup complete CPU 0 instructions: 50000003 cycles: 16252297 (Simulation time: 0 hr 39 min 39 sec) 

Heartbeat CPU 0 instructions: 60000003 cycles: 41915219 heartbeat IPC: 0.389667 cumulative IPC: 0.389667 (Simulation time: 0 hr 47 min 31 sec) 
Heartbeat CPU 0 instructions: 70000000 cycles: 67167885 heartbeat IPC: 0.395998 cumulative IPC: 0.392807 (Simulation time: 0 hr 55 min 46 sec) 
Heartbeat CPU 0 instructions: 80000001 cycles: 92606853 heartbeat IPC: 0.393098 cumulative IPC: 0.392904 (Simulation time: 1 hr 2 min 16 sec) 
Heartbeat CPU 0 instructions: 90000001 cycles: 118227257 heartbeat IPC: 0.390314 cumulative IPC: 0.392253 (Simulation time: 1 hr 10 min 19 sec) 
Heartbeat CPU 0 instructions: 100000000 cycles: 144417680 heartbeat IPC: 0.381819 cumulative IPC: 0.390121 (Simulation time: 1 hr 18 min 17 sec) 
Heartbeat CPU 0 instructions: 110000000 cycles: 170692057 heartbeat IPC: 0.380599 cumulative IPC: 0.388501 (Simulation time: 1 hr 25 min 36 sec) 
Heartbeat CPU 0 instructions: 120000000 cycles: 196898949 heartbeat IPC: 0.381579 cumulative IPC: 0.387497 (Simulation time: 1 hr 32 min 23 sec) 
Heartbeat CPU 0 instructions: 130000000 cycles: 222835652 heartbeat IPC: 0.385554 cumulative IPC: 0.387253 (Simulation time: 1 hr 38 min 10 sec) 
Heartbeat CPU 0 instructions: 140000001 cycles: 248522018 heartbeat IPC: 0.389312 cumulative IPC: 0.387481 (Simulation time: 1 hr 43 min 32 sec) 
Heartbeat CPU 0 instructions: 150000000 cycles: 273882637 heartbeat IPC: 0.394312 cumulative IPC: 0.388153 (Simulation time: 1 hr 48 min 52 sec) 
Heartbeat CPU 0 instructions: 160000000 cycles: 299410429 heartbeat IPC: 0.39173 cumulative IPC: 0.388476 (Simulation time: 1 hr 53 min 56 sec) 
Heartbeat CPU 0 instructions: 170000000 cycles: 324884409 heartbeat IPC: 0.392557 cumulative IPC: 0.388812 (Simulation time: 1 hr 57 min 22 sec) 
Heartbeat CPU 0 instructions: 180000003 cycles: 350358805 heartbeat IPC: 0.392551 cumulative IPC: 0.389097 (Simulation time: 2 hr 1 min 7 sec) 
Heartbeat CPU 0 instructions: 190000002 cycles: 375994749 heartbeat IPC: 0.390077 cumulative IPC: 0.389167 (Simulation time: 2 hr 4 min 34 sec) 
Heartbeat CPU 0 instructions: 200000000 cycles: 402338897 heartbeat IPC: 0.379591 cumulative IPC: 0.388514 (Simulation time: 2 hr 6 min 52 sec) 
Heartbeat CPU 0 instructions: 210000001 cycles: 429369394 heartbeat IPC: 0.369953 cumulative IPC: 0.387299 (Simulation time: 2 hr 8 min 59 sec) 
Heartbeat CPU 0 instructions: 220000000 cycles: 454950105 heartbeat IPC: 0.39092 cumulative IPC: 0.38751 (Simulation time: 2 hr 11 min 9 sec) 
Heartbeat CPU 0 instructions: 230000000 cycles: 481111642 heartbeat IPC: 0.382241 cumulative IPC: 0.387214 (Simulation time: 2 hr 13 min 13 sec) 
Heartbeat CPU 0 instructions: 240000001 cycles: 507519007 heartbeat IPC: 0.378682 cumulative IPC: 0.386755 (Simulation time: 2 hr 14 min 46 sec) 
Heartbeat CPU 0 instructions: 250000001 cycles: 533515168 heartbeat IPC: 0.384672 cumulative IPC: 0.386651 (Simulation time: 2 hr 15 min 58 sec) 
Finished CPU 0 instructions: 200000000 cycles: 517262894 cumulative IPC: 0.386651 (Simulation time: 2 hr 15 min 58 sec) 

ChampSim completed all CPUs

Region of Interest Statistics

CPU 0 cumulative IPC: 0.386651 instructions: 200000000 cycles: 517262894
ITLB TOTAL     ACCESS:   36046474  HIT:   36046418  MISS:         56  HIT %:    99.9998  MISS %: 0.000155355   MPKI: 0.00028
ITLB LOAD TRANSLATION ACCESS:   36046474  HIT:   36046418  MISS:         56  HIT %:    99.9998  MISS %: 0.000155355   MPKI: 0.00028
ITLB PREFETCH  REQUESTED:          0  ISSUED:          0  USEFUL:          0  USELESS:          0
ITLB USEFUL LOAD PREFETCHES:          0 PREFETCH ISSUED TO LOWER LEVEL:          0  ACCURACY: -nan
ITLB TIMELY PREFETCHES:          0 LATE PREFETCHES: 0 DROPPED PREFETCHES: 0
ITLB PREFETCHES SAME FILL-ORIGIN LEVEL: 0 DIFFERENT FILL-ORIGIN LEVEL: 0
ITLB AVERAGE MISS LATENCY: 156.161 cycles
ITLB RQ	ACCESS:   41165489	FORWARD:          0	MERGED:    5119001	TO_CACHE:   36046488

DTLB TOTAL     ACCESS:   55516169  HIT:   55389596  MISS:     126573  HIT %:     99.772  MISS %:   0.227993   MPKI: 0.632865
DTLB LOAD TRANSLATION ACCESS:   55516169  HIT:   55389596  MISS:     126573  HIT %:     99.772  MISS %:   0.227993   MPKI: 0.632865
DTLB PREFETCH  REQUESTED:          0  ISSUED:          0  USEFUL:          0  USELESS:          0
DTLB USEFUL LOAD PREFETCHES:          0 PREFETCH ISSUED TO LOWER LEVEL:          0  ACCURACY: -nan
DTLB TIMELY PREFETCHES:          0 LATE PREFETCHES: 0 DROPPED PREFETCHES: 0
DTLB PREFETCHES SAME FILL-ORIGIN LEVEL: 0 DIFFERENT FILL-ORIGIN LEVEL: 0
DTLB AVERAGE MISS LATENCY: 9.82211 cycles
DTLB RQ	ACCESS:   63163499	FORWARD:          0	MERGED:    7638917	TO_CACHE:   55524582

STLB TOTAL     ACCESS:    1927423  HIT:    1926461  MISS:        962  HIT %:    99.9501  MISS %:  0.0499112   MPKI: 0.00481
STLB LOAD TRANSLATION ACCESS:     126629  HIT:     125667  MISS:        962  HIT %:    99.2403  MISS %:     0.7597   MPKI: 0.00481
STLB TRANSLATION FROM L1D PREFETCHER ACCESS:    1800794  HIT:    1800794  MISS:          0  HIT %:        100  MISS %:          0   MPKI: 0
STLB PREFETCH  REQUESTED:          0  ISSUED:          0  USEFUL:          0  USELESS:          0
STLB USEFUL LOAD PREFETCHES:          0 PREFETCH ISSUED TO LOWER LEVEL:          0  ACCURACY: -nan
STLB TIMELY PREFETCHES:          0 LATE PREFETCHES: 127 DROPPED PREFETCHES: 30739
STLB PREFETCHES SAME FILL-ORIGIN LEVEL: 0 DIFFERENT FILL-ORIGIN LEVEL: 0
STLB AVERAGE MISS LATENCY: 118.498 cycles
STLB RQ	ACCESS:    6053433	FORWARD:          0	MERGED:    4091527	TO_CACHE:    1961906

STLB Hit, L1D data hit: 0
STLB Hit, L2C data hit: 0
STLB Hit, LLC data hit: 0
STLB Hit, LLC data miss: 0
STLB STLB hints to L2: 0
L1D TOTAL     ACCESS:   67411875  HIT:   67085091  MISS:     326784  HIT %:    99.5152  MISS %:   0.484757   MPKI: 1.63392
L1D LOAD      ACCESS:   38618701  HIT:   38419000  MISS:     199701  HIT %:    99.4829  MISS %:    0.51711   MPKI: 0.998505
L1D RFO       ACCESS:   24370215  HIT:   24290783  MISS:      79432  HIT %:    99.6741  MISS %:   0.325939   MPKI: 0.39716
L1D PREFETCH  ACCESS:    4422959  HIT:    4375308  MISS:      47651  HIT %:    98.9226  MISS %:    1.07736   MPKI: 0.238255
L1D PREFETCH  REQUESTED:   12059391  ISSUED:   12058992  USEFUL:      36423  USELESS:      11189
L1D USEFUL LOAD PREFETCHES:      36423 PREFETCH ISSUED TO LOWER LEVEL:    1434375  ACCURACY: 2.53929
L1D TIMELY PREFETCHES:      36423 LATE PREFETCHES: 1431 DROPPED PREFETCHES: 58375
L1D PREFETCHES SAME FILL-ORIGIN LEVEL: 49082 DIFFERENT FILL-ORIGIN LEVEL: 1385293
L1D AVERAGE MISS LATENCY: 30.0108 cycles
L1D RQ	ACCESS:   51634675	FORWARD:          0	MERGED:   10616477	TO_CACHE:   38622771
L1D WQ	ACCESS:   25012092	FORWARD:    2395427	MERGED:     471364	TO_CACHE:   24540728
L1D PQ	ACCESS:    6132188	FORWARD:          0	MERGED:     205384	TO_CACHE:    5926804

L1D UNIQUE REGIONS ACCESSED: 0
L1D REGIONS CONFLICTS: 0
L1D Cross Page Prefetch Requests: 1009496
L1D Same Page Prefetch Requests: 6920231
L1D ROI Sum of L1D PQ occupancy: 84436898
L1D PREFETCHES PUSHED FROM L2C: 0
L1I TOTAL     ACCESS:   41137508  HIT:   41064631  MISS:      72877  HIT %:    99.8228  MISS %:   0.177155   MPKI: 0.364385
L1I LOAD      ACCESS:   41137508  HIT:   41064631  MISS:      72877  HIT %:    99.8228  MISS %:   0.177155   MPKI: 0.364385
L1I PREFETCH  REQUESTED:          0  ISSUED:          0  USEFUL:          0  USELESS:          0
L1I USEFUL LOAD PREFETCHES:          0 PREFETCH ISSUED TO LOWER LEVEL:          0  ACCURACY: -nan
L1I TIMELY PREFETCHES:          0 LATE PREFETCHES: 0 DROPPED PREFETCHES: 0
L1I PREFETCHES SAME FILL-ORIGIN LEVEL: 0 DIFFERENT FILL-ORIGIN LEVEL: 0
L1I AVERAGE MISS LATENCY: 15.6426 cycles
L1I RQ	ACCESS:   58476776	FORWARD:          0	MERGED:   17311287	TO_CACHE:   41165489

BTB TOTAL     ACCESS:   31812743  HIT:   29416942  MISS:    2395801  HIT %:    92.4691  MISS %:    7.53095   MPKI: 11.979
BTB BRANCH_DIRECT_JUMP	ACCESS:    1225840  HIT:    1225664  MISS:        176
BTB BRANCH_INDIRECT	ACCESS:       7743  HIT:       7289  MISS:        454
BTB BRANCH_CONDITIONAL	ACCESS:   18870685  HIT:   18863312  MISS:       7373
BTB BRANCH_DIRECT_CALL	ACCESS:    5854218  HIT:    5850368  MISS:       3850
BTB BRANCH_INDIRECT_CALL	ACCESS:         23  HIT:         11  MISS:         12
BTB BRANCH_RETURN	ACCESS:    5854234  HIT:    3470298  MISS:    2383936
BTB BRANCH_OTHER ACCESS:          0  HIT:          0  MISS:          0

L2C TOTAL     ACCESS:    1923849  HIT:    1873186  MISS:      50663  HIT %:    97.3666  MISS %:    2.63342   MPKI: 0.253315
L2C LOAD      ACCESS:     271143  HIT:     265393  MISS:       5750  HIT %:    97.8793  MISS %:    2.12065   MPKI: 0.02875
L2C DATA LOAD MPKI: 0.02484
L2C INSTRUCTION LOAD MPKI: 0.00391
L2C RFO       ACCESS:      79388  HIT:      57423  MISS:      21965  HIT %:    72.3321  MISS %:    27.6679   MPKI: 0.109825
L2C PREFETCH  ACCESS:    1425114  HIT:    1402658  MISS:      22456  HIT %:    98.4243  MISS %:    1.57573   MPKI: 0.11228
L2C DATA PREFETCH MPKI: 0.11228
L2C INSTRUCTION PREFETCH MPKI: 0
L2C WRITEBACK ACCESS:     116376  HIT:     116163  MISS:        213  HIT %:     99.817  MISS %:   0.183027   MPKI: 0.001065
L2C LOAD TRANSLATION ACCESS:        962  HIT:        772  MISS:        190  HIT %:    80.2495  MISS %:    19.7505   MPKI: 0.00095
L2C TRANSLATION FROM L1D PREFETCHER ACCESS:      30866  HIT:      30777  MISS:         89  HIT %:    99.7117  MISS %:   0.288343   MPKI: 0.000445
L2C PREFETCH  REQUESTED:          0  ISSUED:          0  USEFUL:       1248  USELESS:      20377
L2C USEFUL LOAD PREFETCHES:       1248 PREFETCH ISSUED TO LOWER LEVEL:      22497  ACCURACY: 5.54741
L2C TIMELY PREFETCHES:       1248 LATE PREFETCHES: 41 DROPPED PREFETCHES: 0
L2C PREFETCHES SAME FILL-ORIGIN LEVEL: 6692 DIFFERENT FILL-ORIGIN LEVEL: 0
L2C AVERAGE MISS LATENCY: 112.517 cycles
L2C RQ	ACCESS:     382407	FORWARD:          0	MERGED:          0	TO_CACHE:     382359
L2C WQ	ACCESS:     116376	FORWARD:         48	MERGED:          0	TO_CACHE:     116376
L2C PQ	ACCESS:    1434375	FORWARD:          0	MERGED:         30	TO_CACHE:    1434345

L2C Instructions Evicting Data 756
L2C Translations Evicting Data 245
L2C Data Evicting Data 44577
L2C Instructions Evicting Instructions 9
L2C Translations Evicting Instructions 15
L2C Data Evicting Instructions 943
L2C Instructions Evicting Translations 1
L2C Translations Evicting Translations 1
L2C Data Evicting Translations 365
L2C Dense regions hint from L2: 0
PSCL5 TOTAL     ACCESS:      31828  HIT:      31828  MISS:          0  HIT %:        100  MISS %:          0   MPKI: 0
PSCL5 LOAD TRANSLATION ACCESS:        962  HIT:        962  MISS:          0  HIT %:        100  MISS %:          0   MPKI: 0
PSCL5 TRANSLATION FROM L1D PREFETCHER ACCESS:      30866  HIT:      30866  MISS:          0  HIT %:        100  MISS %:          0   MPKI: 0
PSCL5 PREFETCH  REQUESTED:          0  ISSUED:          0  USEFUL:          0  USELESS:          0
PSCL5 USEFUL LOAD PREFETCHES:          0 PREFETCH ISSUED TO LOWER LEVEL:          0  ACCURACY: -nan
PSCL5 TIMELY PREFETCHES:          0 LATE PREFETCHES: 0 DROPPED PREFETCHES: 0
PSCL5 PREFETCHES SAME FILL-ORIGIN LEVEL: 0 DIFFERENT FILL-ORIGIN LEVEL: 0

PSCL4 TOTAL     ACCESS:      31828  HIT:      31828  MISS:          0  HIT %:        100  MISS %:          0   MPKI: 0
PSCL4 LOAD TRANSLATION ACCESS:        962  HIT:        962  MISS:          0  HIT %:        100  MISS %:          0   MPKI: 0
PSCL4 TRANSLATION FROM L1D PREFETCHER ACCESS:      30866  HIT:      30866  MISS:          0  HIT %:        100  MISS %:          0   MPKI: 0
PSCL4 PREFETCH  REQUESTED:          0  ISSUED:          0  USEFUL:          0  USELESS:          0
PSCL4 USEFUL LOAD PREFETCHES:          0 PREFETCH ISSUED TO LOWER LEVEL:          0  ACCURACY: -nan
PSCL4 TIMELY PREFETCHES:          0 LATE PREFETCHES: 0 DROPPED PREFETCHES: 0
PSCL4 PREFETCHES SAME FILL-ORIGIN LEVEL: 0 DIFFERENT FILL-ORIGIN LEVEL: 0

PSCL3 TOTAL     ACCESS:      31828  HIT:      31828  MISS:          0  HIT %:        100  MISS %:          0   MPKI: 0
PSCL3 LOAD TRANSLATION ACCESS:        962  HIT:        962  MISS:          0  HIT %:        100  MISS %:          0   MPKI: 0
PSCL3 TRANSLATION FROM L1D PREFETCHER ACCESS:      30866  HIT:      30866  MISS:          0  HIT %:        100  MISS %:          0   MPKI: 0
PSCL3 PREFETCH  REQUESTED:          0  ISSUED:          0  USEFUL:          0  USELESS:          0
PSCL3 USEFUL LOAD PREFETCHES:          0 PREFETCH ISSUED TO LOWER LEVEL:          0  ACCURACY: -nan
PSCL3 TIMELY PREFETCHES:          0 LATE PREFETCHES: 0 DROPPED PREFETCHES: 0
PSCL3 PREFETCHES SAME FILL-ORIGIN LEVEL: 0 DIFFERENT FILL-ORIGIN LEVEL: 0

PSCL2 TOTAL     ACCESS:      31828  HIT:      31827  MISS:          1  HIT %:    99.9969  MISS %: 0.00314189   MPKI: 5e-06
PSCL2 LOAD TRANSLATION ACCESS:        962  HIT:        961  MISS:          1  HIT %:     99.896  MISS %:    0.10395   MPKI: 5e-06
PSCL2 TRANSLATION FROM L1D PREFETCHER ACCESS:      30866  HIT:      30866  MISS:          0  HIT %:        100  MISS %:          0   MPKI: 0
PSCL2 PREFETCH  REQUESTED:          0  ISSUED:          0  USEFUL:          0  USELESS:          0
PSCL2 USEFUL LOAD PREFETCHES:          0 PREFETCH ISSUED TO LOWER LEVEL:          0  ACCURACY: -nan
PSCL2 TIMELY PREFETCHES:          0 LATE PREFETCHES: 0 DROPPED PREFETCHES: 0
PSCL2 PREFETCHES SAME FILL-ORIGIN LEVEL: 0 DIFFERENT FILL-ORIGIN LEVEL: 0

LLC TOTAL     ACCESS:      72110  HIT:      34608  MISS:      37502  HIT %:    47.9933  MISS %:    52.0067   MPKI: 0.18751
LLC LOAD      ACCESS:       5709  HIT:       1895  MISS:       3814  HIT %:    33.1932  MISS %:    66.8068   MPKI: 0.01907
LLC RFO       ACCESS:      21965  HIT:        370  MISS:      21595  HIT %:     1.6845  MISS %:    98.3155   MPKI: 0.107975
LLC PREFETCH  ACCESS:      22497  HIT:      10888  MISS:      11609  HIT %:    48.3976  MISS %:    51.6024   MPKI: 0.058045
LLC WRITEBACK ACCESS:      21660  HIT:      21345  MISS:        315  HIT %:    98.5457  MISS %:    1.45429   MPKI: 0.001575
LLC LOAD TRANSLATION ACCESS:        190  HIT:         81  MISS:        109  HIT %:    42.6316  MISS %:    57.3684   MPKI: 0.000545
LLC TRANSLATION FROM L1D PREFETCHER ACCESS:         89  HIT:         29  MISS:         60  HIT %:    32.5843  MISS %:    67.4157   MPKI: 0.0003
LLC PREFETCH  REQUESTED:          0  ISSUED:          0  USEFUL:        403  USELESS:       5178
LLC USEFUL LOAD PREFETCHES:        403 PREFETCH ISSUED TO LOWER LEVEL:      11609  ACCURACY: 3.47144
LLC TIMELY PREFETCHES:        403 LATE PREFETCHES: 0 DROPPED PREFETCHES: 0
LLC PREFETCHES SAME FILL-ORIGIN LEVEL: 0 DIFFERENT FILL-ORIGIN LEVEL: 0
LLC AVERAGE MISS LATENCY: 111.437 cycles
LLC RQ	ACCESS:      27953	FORWARD:          0	MERGED:          0	TO_CACHE:      27953
LLC WQ	ACCESS:      21660	FORWARD:          0	MERGED:          0	TO_CACHE:      21660
LLC PQ	ACCESS:      22497	FORWARD:          0	MERGED:          0	TO_CACHE:      22497

LLC Dense regions hint to LLC: 0

RAW hits: 1934283
Loads Generated: 53568958
Loads sent to L1D: 51634675
Stores Generated: 25012092
Stores sent to L1D: 25012092
Major fault: 0 Minor fault: 1493
Allocated PAGES: 1493

DRAM Statistics
 CHANNEL 0
 RQ ROW_BUFFER_HIT:      22261  ROW_BUFFER_MISS:      14926
 DBUS_CONGESTED:          7
 WQ ROW_BUFFER_HIT:        657  ROW_BUFFER_MISS:       2015  FULL:          0

 AVG_CONGESTED_CYCLE: 4
 All warmup complete: 2
Channel 0 Bank busy for read cycles: 0
Channel 0 Bank busy for write cycles: 0
Channel 0
Rank 0
0banks busy for read cycles: 514585357
0banks busy for write cycles: 436
1banks busy for read cycles: 1689315
1banks busy for write cycles: 120166
2banks busy for read cycles: 477770
2banks busy for write cycles: 55817
3banks busy for read cycles: 100187
3banks busy for write cycles: 21792
4banks busy for read cycles: 24784
4banks busy for write cycles: 14668
5banks busy for read cycles: 16235
5banks busy for write cycles: 13249
6banks busy for read cycles: 12511
6banks busy for write cycles: 11807
7banks busy for read cycles: 9708
7banks busy for write cycles: 20958
8banks busy for read cycles: 10419
8banks busy for write cycles: 77716

CPU 0 Branch Prediction Accuracy: 93.5817% MPKI: 7.00028 Average ROB Occupancy at Mispredict: 23.0357
Branch types
NOT_BRANCH: 165244167 82.6221%
BRANCH_DIRECT_JUMP: 1225840 0.61292%
BRANCH_INDIRECT: 7743 0.0038715%
BRANCH_CONDITIONAL: 21813396 10.9067%
BRANCH_DIRECT_CALL: 5854218 2.92711%
BRANCH_INDIRECT_CALL: 23 1.15e-05%
BRANCH_RETURN: 5854234 2.92712%
BRANCH_OTHER: 0 0%

DRAM PAGES: 1048576
Allocated PAGES: 1493
