 (TOTAL 523355 bits 511 Kbits) 
*** ChampSim Multicore Out-of-Order Simulator ***

Warmup Instructions: 50000000
Simulation Instructions: 200000000
Number of CPUs: 1
LLC sets: 2048
LLC ways: 16
Off-chip DRAM Size: 4096 MB Channels: 1 Width: 64-bit Data Rate: 6400 MT/s
argv[0]: ./ChampSim/Berti/bin/tagescl-no-vberti-no-no-no-no-no-lru-lru-lru-srrip-drrip-lru-lru-lru-1core-no
argv[1]: -warmup_instructions
argv[2]: 50000000
argv[3]: -simulation_instructions
argv[4]: 200000000
argv[5]: -traces
argv[6]: traces/spec2k17_ten/641.leela_s-602B.champsimtrace.xz
CPU 0 runs traces/spec2k17_ten/641.leela_s-602B.champsimtrace.xz
.xz
CPU 0 Tage branch predictor
BTB has LRU replacement policy
ITLB has LRU replacement policy
DTLB has LRU replacement policy
STLB has LRU replacement policy
L1I has LRU replacement policy
History Sets: 8
History Ways: 16
BERTI Size: 16
BERTI Stride Size: 16
L1D has LRU replacement policy
Initialize SRRIP state for L2C
Initialize DRRIP state for LLC
Heartbeat CPU 0 instructions: 10000001 cycles: 3217226 heartbeat IPC: 3.10827 cumulative IPC: 3.10827 (Simulation time: 0 hr 6 min 43 sec) 
Heartbeat CPU 0 instructions: 20000002 cycles: 6416958 heartbeat IPC: 3.12526 cumulative IPC: 3.11674 (Simulation time: 0 hr 14 min 3 sec) 
Heartbeat CPU 0 instructions: 30000000 cycles: 9604828 heartbeat IPC: 3.13689 cumulative IPC: 3.12343 (Simulation time: 0 hr 20 min 42 sec) 
Heartbeat CPU 0 instructions: 40000001 cycles: 12800691 heartbeat IPC: 3.12905 cumulative IPC: 3.12483 (Simulation time: 0 hr 26 min 14 sec) 
Heartbeat CPU 0 instructions: 50000000 cycles: 15985905 heartbeat IPC: 3.13951 cumulative IPC: 3.12776 (Simulation time: 0 hr 32 min 11 sec) 

Warmup complete CPU 0 instructions: 50000004 cycles: 15985906 (Simulation time: 0 hr 32 min 11 sec) 

Heartbeat CPU 0 instructions: 60000003 cycles: 41258636 heartbeat IPC: 0.395684 cumulative IPC: 0.395683 (Simulation time: 0 hr 40 min 9 sec) 
Heartbeat CPU 0 instructions: 70000000 cycles: 66501257 heartbeat IPC: 0.396155 cumulative IPC: 0.395919 (Simulation time: 0 hr 47 min 39 sec) 
Heartbeat CPU 0 instructions: 80000001 cycles: 91581369 heartbeat IPC: 0.398722 cumulative IPC: 0.396849 (Simulation time: 0 hr 55 min 27 sec) 
Heartbeat CPU 0 instructions: 90000000 cycles: 116904282 heartbeat IPC: 0.394899 cumulative IPC: 0.39636 (Simulation time: 1 hr 3 min 16 sec) 
Heartbeat CPU 0 instructions: 100000001 cycles: 142991000 heartbeat IPC: 0.383337 cumulative IPC: 0.393685 (Simulation time: 1 hr 10 min 31 sec) 
Heartbeat CPU 0 instructions: 110000000 cycles: 169168187 heartbeat IPC: 0.382012 cumulative IPC: 0.39169 (Simulation time: 1 hr 16 min 52 sec) 
Heartbeat CPU 0 instructions: 120000001 cycles: 195190715 heartbeat IPC: 0.384282 cumulative IPC: 0.390615 (Simulation time: 1 hr 23 min 9 sec) 
Heartbeat CPU 0 instructions: 130000003 cycles: 220649493 heartbeat IPC: 0.392792 cumulative IPC: 0.390885 (Simulation time: 1 hr 29 min 13 sec) 
Heartbeat CPU 0 instructions: 140000000 cycles: 245803660 heartbeat IPC: 0.397548 cumulative IPC: 0.391615 (Simulation time: 1 hr 33 min 56 sec) 
Heartbeat CPU 0 instructions: 150000002 cycles: 271076619 heartbeat IPC: 0.39568 cumulative IPC: 0.392017 (Simulation time: 1 hr 38 min 45 sec) 
Heartbeat CPU 0 instructions: 160000003 cycles: 296646571 heartbeat IPC: 0.391084 cumulative IPC: 0.391932 (Simulation time: 1 hr 43 min 53 sec) 
Heartbeat CPU 0 instructions: 170000003 cycles: 322069924 heartbeat IPC: 0.393339 cumulative IPC: 0.392049 (Simulation time: 1 hr 49 min 5 sec) 
Heartbeat CPU 0 instructions: 180000000 cycles: 347316133 heartbeat IPC: 0.396099 cumulative IPC: 0.392358 (Simulation time: 1 hr 53 min 55 sec) 
Heartbeat CPU 0 instructions: 190000003 cycles: 383805862 heartbeat IPC: 0.27405 cumulative IPC: 0.380621 (Simulation time: 2 hr 0 min 12 sec) 
Heartbeat CPU 0 instructions: 200000001 cycles: 411909937 heartbeat IPC: 0.35582 cumulative IPC: 0.378861 (Simulation time: 2 hr 4 min 1 sec) 
Heartbeat CPU 0 instructions: 210000000 cycles: 439083855 heartbeat IPC: 0.368 cumulative IPC: 0.378163 (Simulation time: 2 hr 6 min 31 sec) 
Heartbeat CPU 0 instructions: 220000000 cycles: 466147793 heartbeat IPC: 0.369495 cumulative IPC: 0.377642 (Simulation time: 2 hr 9 min 8 sec) 
Heartbeat CPU 0 instructions: 230000000 cycles: 493195985 heartbeat IPC: 0.36971 cumulative IPC: 0.377192 (Simulation time: 2 hr 11 min 27 sec) 
Heartbeat CPU 0 instructions: 240000001 cycles: 520359779 heartbeat IPC: 0.368137 cumulative IPC: 0.376705 (Simulation time: 2 hr 13 min 27 sec) 
Heartbeat CPU 0 instructions: 250000000 cycles: 547362978 heartbeat IPC: 0.370326 cumulative IPC: 0.376381 (Simulation time: 2 hr 14 min 56 sec) 
Finished CPU 0 instructions: 200000002 cycles: 531377129 cumulative IPC: 0.376381 (Simulation time: 2 hr 14 min 56 sec) 

ChampSim completed all CPUs

Region of Interest Statistics

CPU 0 cumulative IPC: 0.376381 instructions: 200000002 cycles: 531377129
ITLB TOTAL     ACCESS:   36055018  HIT:   36054544  MISS:        474  HIT %:    99.9987  MISS %: 0.00131466   MPKI: 0.00237
ITLB LOAD TRANSLATION ACCESS:   36055018  HIT:   36054544  MISS:        474  HIT %:    99.9987  MISS %: 0.00131466   MPKI: 0.00237
ITLB PREFETCH  REQUESTED:          0  ISSUED:          0  USEFUL:          0  USELESS:          0
ITLB USEFUL LOAD PREFETCHES:          0 PREFETCH ISSUED TO LOWER LEVEL:          0  ACCURACY: -nan
ITLB TIMELY PREFETCHES:          0 LATE PREFETCHES: 0 DROPPED PREFETCHES: 0
ITLB PREFETCHES SAME FILL-ORIGIN LEVEL: 0 DIFFERENT FILL-ORIGIN LEVEL: 0
ITLB AVERAGE MISS LATENCY: 26.019 cycles
ITLB RQ	ACCESS:   41143500	FORWARD:          0	MERGED:    5088385	TO_CACHE:   36055115

DTLB TOTAL     ACCESS:   55877752  HIT:   55742159  MISS:     135593  HIT %:    99.7573  MISS %:    0.24266   MPKI: 0.677965
DTLB LOAD TRANSLATION ACCESS:   55877752  HIT:   55742159  MISS:     135593  HIT %:    99.7573  MISS %:    0.24266   MPKI: 0.677965
DTLB PREFETCH  REQUESTED:          0  ISSUED:          0  USEFUL:          0  USELESS:          0
DTLB USEFUL LOAD PREFETCHES:          0 PREFETCH ISSUED TO LOWER LEVEL:          0  ACCURACY: -nan
DTLB TIMELY PREFETCHES:          0 LATE PREFETCHES: 0 DROPPED PREFETCHES: 0
DTLB PREFETCHES SAME FILL-ORIGIN LEVEL: 0 DIFFERENT FILL-ORIGIN LEVEL: 0
DTLB AVERAGE MISS LATENCY: 9.63954 cycles
DTLB RQ	ACCESS:   63297742	FORWARD:          0	MERGED:    7413163	TO_CACHE:   55884579

STLB TOTAL     ACCESS:    2284417  HIT:    2283568  MISS:        849  HIT %:    99.9628  MISS %:  0.0371648   MPKI: 0.004245
STLB LOAD TRANSLATION ACCESS:     136067  HIT:     135218  MISS:        849  HIT %:     99.376  MISS %:   0.623957   MPKI: 0.004245
STLB TRANSLATION FROM L1D PREFETCHER ACCESS:    2148350  HIT:    2148350  MISS:          0  HIT %:        100  MISS %:          0   MPKI: 0
STLB PREFETCH  REQUESTED:          0  ISSUED:          0  USEFUL:          0  USELESS:          0
STLB USEFUL LOAD PREFETCHES:          0 PREFETCH ISSUED TO LOWER LEVEL:          0  ACCURACY: -nan
STLB TIMELY PREFETCHES:          0 LATE PREFETCHES: 73 DROPPED PREFETCHES: 84461
STLB PREFETCHES SAME FILL-ORIGIN LEVEL: 0 DIFFERENT FILL-ORIGIN LEVEL: 0
STLB AVERAGE MISS LATENCY: 130.468 cycles
STLB RQ	ACCESS:   12562541	FORWARD:          0	MERGED:   10185500	TO_CACHE:    2377041

STLB Hit, L1D data hit: 0
STLB Hit, L2C data hit: 0
STLB Hit, LLC data hit: 0
STLB Hit, LLC data miss: 0
STLB STLB hints to L2: 0
L1D TOTAL     ACCESS:   73191191  HIT:   72559720  MISS:     631471  HIT %:    99.1372  MISS %:   0.862769   MPKI: 3.15735
L1D LOAD      ACCESS:   38933862  HIT:   38674711  MISS:     259151  HIT %:    99.3344  MISS %:   0.665619   MPKI: 1.29575
L1D RFO       ACCESS:   24011438  HIT:   23821461  MISS:     189977  HIT %:    99.2088  MISS %:   0.791194   MPKI: 0.949885
L1D PREFETCH  ACCESS:   10245891  HIT:   10063548  MISS:     182343  HIT %:    98.2203  MISS %:    1.77967   MPKI: 0.911715
L1D PREFETCH  REQUESTED:   25532158  ISSUED:   25531367  USEFUL:     166899  USELESS:      15491
L1D USEFUL LOAD PREFETCHES:     166899 PREFETCH ISSUED TO LOWER LEVEL:    2054254  ACCURACY: 8.12456
L1D TIMELY PREFETCHES:     166899 LATE PREFETCHES: 539 DROPPED PREFETCHES: 142347
L1D PREFETCHES SAME FILL-ORIGIN LEVEL: 182882 DIFFERENT FILL-ORIGIN LEVEL: 1871372
L1D AVERAGE MISS LATENCY: 29.0229 cycles
L1D RQ	ACCESS:   51455702	FORWARD:          0	MERGED:   10283605	TO_CACHE:   38941336
L1D WQ	ACCESS:   24739865	FORWARD:    2230767	MERGED:     383459	TO_CACHE:   24356406
L1D PQ	ACCESS:   13104893	FORWARD:          0	MERGED:     678413	TO_CACHE:   12426474

L1D UNIQUE REGIONS ACCESSED: 0
L1D REGIONS CONFLICTS: 0
L1D Cross Page Prefetch Requests: 1765878
L1D Same Page Prefetch Requests: 13569622
L1D ROI Sum of L1D PQ occupancy: 184247261
L1D PREFETCHES PUSHED FROM L2C: 0
L1I TOTAL     ACCESS:   41123522  HIT:   41069008  MISS:      54514  HIT %:    99.8674  MISS %:   0.132562   MPKI: 0.27257
L1I LOAD      ACCESS:   41123522  HIT:   41069008  MISS:      54514  HIT %:    99.8674  MISS %:   0.132562   MPKI: 0.27257
L1I PREFETCH  REQUESTED:          0  ISSUED:          0  USEFUL:          0  USELESS:          0
L1I USEFUL LOAD PREFETCHES:          0 PREFETCH ISSUED TO LOWER LEVEL:          0  ACCURACY: -nan
L1I TIMELY PREFETCHES:          0 LATE PREFETCHES: 0 DROPPED PREFETCHES: 0
L1I PREFETCHES SAME FILL-ORIGIN LEVEL: 0 DIFFERENT FILL-ORIGIN LEVEL: 0
L1I AVERAGE MISS LATENCY: 18.2935 cycles
L1I RQ	ACCESS:   58462129	FORWARD:          0	MERGED:   17318629	TO_CACHE:   41143500

BTB TOTAL     ACCESS:   31508168  HIT:   29228031  MISS:    2280137  HIT %:    92.7633  MISS %:    7.23665   MPKI: 11.4007
BTB BRANCH_DIRECT_JUMP	ACCESS:    1239661  HIT:    1239439  MISS:        222
BTB BRANCH_INDIRECT	ACCESS:       6867  HIT:       5809  MISS:       1058
BTB BRANCH_CONDITIONAL	ACCESS:   18888960  HIT:   18883983  MISS:       4977
BTB BRANCH_DIRECT_CALL	ACCESS:    5685287  HIT:    5682436  MISS:       2851
BTB BRANCH_INDIRECT_CALL	ACCESS:       1049  HIT:        891  MISS:        158
BTB BRANCH_RETURN	ACCESS:    5686344  HIT:    3415473  MISS:    2270871
BTB BRANCH_OTHER ACCESS:          0  HIT:          0  MISS:          0

L2C TOTAL     ACCESS:    2893342  HIT:    2654207  MISS:     239135  HIT %:     91.735  MISS %:    8.26501   MPKI: 1.19567
L2C LOAD      ACCESS:     313124  HIT:     293577  MISS:      19547  HIT %:    93.7574  MISS %:    6.24257   MPKI: 0.097735
L2C DATA LOAD MPKI: 0.076125
L2C INSTRUCTION LOAD MPKI: 0.02161
L2C RFO       ACCESS:     189875  HIT:      81187  MISS:     108688  HIT %:    42.7581  MISS %:    57.2419   MPKI: 0.54344
L2C PREFETCH  ACCESS:    2039311  HIT:    1930658  MISS:     108653  HIT %:    94.6721  MISS %:    5.32793   MPKI: 0.543265
L2C DATA PREFETCH MPKI: 0.543265
L2C INSTRUCTION PREFETCH MPKI: 0
L2C WRITEBACK ACCESS:     265649  HIT:     263782  MISS:       1867  HIT %:    99.2972  MISS %:   0.702807   MPKI: 0.009335
L2C LOAD TRANSLATION ACCESS:        849  HIT:        637  MISS:        212  HIT %:    75.0294  MISS %:    24.9706   MPKI: 0.00106
L2C TRANSLATION FROM L1D PREFETCHER ACCESS:      84534  HIT:      84366  MISS:        168  HIT %:    99.8013  MISS %:   0.198737   MPKI: 0.00084
L2C PREFETCH  REQUESTED:          0  ISSUED:          0  USEFUL:       6159  USELESS:     102339
L2C USEFUL LOAD PREFETCHES:       6159 PREFETCH ISSUED TO LOWER LEVEL:     108754  ACCURACY: 5.66324
L2C TIMELY PREFETCHES:       6159 LATE PREFETCHES: 101 DROPPED PREFETCHES: 0
L2C PREFETCHES SAME FILL-ORIGIN LEVEL: 29639 DIFFERENT FILL-ORIGIN LEVEL: 0
L2C AVERAGE MISS LATENCY: 45.2619 cycles
L2C RQ	ACCESS:     588486	FORWARD:          0	MERGED:          0	TO_CACHE:     588382
L2C WQ	ACCESS:     265649	FORWARD:        105	MERGED:          0	TO_CACHE:     265649
L2C PQ	ACCESS:    2054254	FORWARD:          0	MERGED:         91	TO_CACHE:    2054162

L2C Instructions Evicting Data 4256
L2C Translations Evicting Data 344
L2C Data Evicting Data 224179
L2C Instructions Evicting Instructions 53
L2C Translations Evicting Instructions 9
L2C Data Evicting Instructions 4288
L2C Instructions Evicting Translations 7
L2C Translations Evicting Translations 1
L2C Data Evicting Translations 487
L2C Dense regions hint from L2: 0
PSCL5 TOTAL     ACCESS:      85383  HIT:      85383  MISS:          0  HIT %:        100  MISS %:          0   MPKI: 0
PSCL5 LOAD TRANSLATION ACCESS:        849  HIT:        849  MISS:          0  HIT %:        100  MISS %:          0   MPKI: 0
PSCL5 TRANSLATION FROM L1D PREFETCHER ACCESS:      84534  HIT:      84534  MISS:          0  HIT %:        100  MISS %:          0   MPKI: 0
PSCL5 PREFETCH  REQUESTED:          0  ISSUED:          0  USEFUL:          0  USELESS:          0
PSCL5 USEFUL LOAD PREFETCHES:          0 PREFETCH ISSUED TO LOWER LEVEL:          0  ACCURACY: -nan
PSCL5 TIMELY PREFETCHES:          0 LATE PREFETCHES: 0 DROPPED PREFETCHES: 0
PSCL5 PREFETCHES SAME FILL-ORIGIN LEVEL: 0 DIFFERENT FILL-ORIGIN LEVEL: 0

PSCL4 TOTAL     ACCESS:      85383  HIT:      85383  MISS:          0  HIT %:        100  MISS %:          0   MPKI: 0
PSCL4 LOAD TRANSLATION ACCESS:        849  HIT:        849  MISS:          0  HIT %:        100  MISS %:          0   MPKI: 0
PSCL4 TRANSLATION FROM L1D PREFETCHER ACCESS:      84534  HIT:      84534  MISS:          0  HIT %:        100  MISS %:          0   MPKI: 0
PSCL4 PREFETCH  REQUESTED:          0  ISSUED:          0  USEFUL:          0  USELESS:          0
PSCL4 USEFUL LOAD PREFETCHES:          0 PREFETCH ISSUED TO LOWER LEVEL:          0  ACCURACY: -nan
PSCL4 TIMELY PREFETCHES:          0 LATE PREFETCHES: 0 DROPPED PREFETCHES: 0
PSCL4 PREFETCHES SAME FILL-ORIGIN LEVEL: 0 DIFFERENT FILL-ORIGIN LEVEL: 0

PSCL3 TOTAL     ACCESS:      85383  HIT:      85383  MISS:          0  HIT %:        100  MISS %:          0   MPKI: 0
PSCL3 LOAD TRANSLATION ACCESS:        849  HIT:        849  MISS:          0  HIT %:        100  MISS %:          0   MPKI: 0
PSCL3 TRANSLATION FROM L1D PREFETCHER ACCESS:      84534  HIT:      84534  MISS:          0  HIT %:        100  MISS %:          0   MPKI: 0
PSCL3 PREFETCH  REQUESTED:          0  ISSUED:          0  USEFUL:          0  USELESS:          0
PSCL3 USEFUL LOAD PREFETCHES:          0 PREFETCH ISSUED TO LOWER LEVEL:          0  ACCURACY: -nan
PSCL3 TIMELY PREFETCHES:          0 LATE PREFETCHES: 0 DROPPED PREFETCHES: 0
PSCL3 PREFETCHES SAME FILL-ORIGIN LEVEL: 0 DIFFERENT FILL-ORIGIN LEVEL: 0

PSCL2 TOTAL     ACCESS:      85383  HIT:      85383  MISS:          0  HIT %:        100  MISS %:          0   MPKI: 0
PSCL2 LOAD TRANSLATION ACCESS:        849  HIT:        849  MISS:          0  HIT %:        100  MISS %:          0   MPKI: 0
PSCL2 TRANSLATION FROM L1D PREFETCHER ACCESS:      84534  HIT:      84534  MISS:          0  HIT %:        100  MISS %:          0   MPKI: 0
PSCL2 PREFETCH  REQUESTED:          0  ISSUED:          0  USEFUL:          0  USELESS:          0
PSCL2 USEFUL LOAD PREFETCHES:          0 PREFETCH ISSUED TO LOWER LEVEL:          0  ACCURACY: -nan
PSCL2 TIMELY PREFETCHES:          0 LATE PREFETCHES: 0 DROPPED PREFETCHES: 0
PSCL2 PREFETCHES SAME FILL-ORIGIN LEVEL: 0 DIFFERENT FILL-ORIGIN LEVEL: 0

LLC TOTAL     ACCESS:     362850  HIT:     327632  MISS:      35218  HIT %:    90.2941  MISS %:    9.70594   MPKI: 0.17609
LLC LOAD      ACCESS:      19446  HIT:      15103  MISS:       4343  HIT %:    77.6664  MISS %:    22.3336   MPKI: 0.021715
LLC RFO       ACCESS:     108688  HIT:      93374  MISS:      15314  HIT %:    85.9101  MISS %:    14.0899   MPKI: 0.07657
LLC PREFETCH  ACCESS:     108754  HIT:      94109  MISS:      14645  HIT %:    86.5338  MISS %:    13.4662   MPKI: 0.073225
LLC WRITEBACK ACCESS:     125582  HIT:     124813  MISS:        769  HIT %:    99.3877  MISS %:   0.612349   MPKI: 0.003845
LLC LOAD TRANSLATION ACCESS:        212  HIT:        108  MISS:        104  HIT %:    50.9434  MISS %:    49.0566   MPKI: 0.00052
LLC TRANSLATION FROM L1D PREFETCHER ACCESS:        168  HIT:        125  MISS:         43  HIT %:    74.4048  MISS %:    25.5952   MPKI: 0.000215
LLC PREFETCH  REQUESTED:          0  ISSUED:          0  USEFUL:       1493  USELESS:       2307
LLC USEFUL LOAD PREFETCHES:       1493 PREFETCH ISSUED TO LOWER LEVEL:      14645  ACCURACY: 10.1946
LLC TIMELY PREFETCHES:       1493 LATE PREFETCHES: 0 DROPPED PREFETCHES: 0
LLC PREFETCHES SAME FILL-ORIGIN LEVEL: 0 DIFFERENT FILL-ORIGIN LEVEL: 0
LLC AVERAGE MISS LATENCY: 105.065 cycles
LLC RQ	ACCESS:     128514	FORWARD:          0	MERGED:          0	TO_CACHE:     128514
LLC WQ	ACCESS:     125582	FORWARD:          0	MERGED:          0	TO_CACHE:     125582
LLC PQ	ACCESS:     108754	FORWARD:          0	MERGED:          0	TO_CACHE:     108754

LLC Dense regions hint to LLC: 0

RAW hits: 1875910
Loads Generated: 53331613
Loads sent to L1D: 51455702
Stores Generated: 24739858
Stores sent to L1D: 24739865
Major fault: 0 Minor fault: 1321
Allocated PAGES: 1321

DRAM Statistics
 CHANNEL 0
 RQ ROW_BUFFER_HIT:      22491  ROW_BUFFER_MISS:      11958
 DBUS_CONGESTED:          8
 WQ ROW_BUFFER_HIT:        735  ROW_BUFFER_MISS:       3050  FULL:          0

 AVG_CONGESTED_CYCLE: 3
 All warmup complete: 2
Channel 0 Bank busy for read cycles: 0
Channel 0 Bank busy for write cycles: 0
Channel 0
Rank 0
0banks busy for read cycles: 528549003
0banks busy for write cycles: 2474
1banks busy for read cycles: 1931657
1banks busy for write cycles: 419290
2banks busy for read cycles: 239883
2banks busy for write cycles: 61225
3banks busy for read cycles: 49777
3banks busy for write cycles: 26316
4banks busy for read cycles: 24132
4banks busy for write cycles: 13569
5banks busy for read cycles: 12927
5banks busy for write cycles: 9051
6banks busy for read cycles: 8583
6banks busy for write cycles: 5123
7banks busy for read cycles: 6479
7banks busy for write cycles: 1907
8banks busy for read cycles: 12465
8banks busy for write cycles: 3269

CPU 0 Branch Prediction Accuracy: 92.0557% MPKI: 8.50879 Average ROB Occupancy at Mispredict: 23.3251
Branch types
NOT_BRANCH: 165959196 82.9796%
BRANCH_DIRECT_JUMP: 1239661 0.61983%
BRANCH_INDIRECT: 6867 0.0034335%
BRANCH_CONDITIONAL: 21421235 10.7106%
BRANCH_DIRECT_CALL: 5685287 2.84264%
BRANCH_INDIRECT_CALL: 1049 0.0005245%
BRANCH_RETURN: 5686344 2.84317%
BRANCH_OTHER: 0 0%

DRAM PAGES: 1048576
Allocated PAGES: 1321
