 (TOTAL 523355 bits 511 Kbits) 
*** ChampSim Multicore Out-of-Order Simulator ***

Warmup Instructions: 50000000
Simulation Instructions: 200000000
Number of CPUs: 1
LLC sets: 2048
LLC ways: 16
Off-chip DRAM Size: 4096 MB Channels: 1 Width: 64-bit Data Rate: 6400 MT/s
argv[0]: ./ChampSim/Berti/bin/tagescl-no-vberti-no-no-no-no-no-lru-lru-lru-srrip-drrip-lru-lru-lru-1core-no
argv[1]: -warmup_instructions
argv[2]: 50000000
argv[3]: -simulation_instructions
argv[4]: 200000000
argv[5]: -traces
argv[6]: traces/spec2k17_ten/641.leela_s-800B.champsimtrace.xz
CPU 0 runs traces/spec2k17_ten/641.leela_s-800B.champsimtrace.xz
.xz
CPU 0 Tage branch predictor
BTB has LRU replacement policy
ITLB has LRU replacement policy
DTLB has LRU replacement policy
STLB has LRU replacement policy
L1I has LRU replacement policy
History Sets: 8
History Ways: 16
BERTI Size: 16
BERTI Stride Size: 16
L1D has LRU replacement policy
Initialize SRRIP state for L2C
Initialize DRRIP state for LLC
Heartbeat CPU 0 instructions: 10000000 cycles: 3157519 heartbeat IPC: 3.16704 cumulative IPC: 3.16704 (Simulation time: 0 hr 8 min 4 sec) 
Heartbeat CPU 0 instructions: 20000002 cycles: 6313847 heartbeat IPC: 3.16824 cumulative IPC: 3.16764 (Simulation time: 0 hr 16 min 19 sec) 
Heartbeat CPU 0 instructions: 30000001 cycles: 9471123 heartbeat IPC: 3.16729 cumulative IPC: 3.16752 (Simulation time: 0 hr 23 min 21 sec) 
Heartbeat CPU 0 instructions: 40000000 cycles: 12629738 heartbeat IPC: 3.16594 cumulative IPC: 3.16713 (Simulation time: 0 hr 31 min 12 sec) 
Heartbeat CPU 0 instructions: 50000001 cycles: 15781335 heartbeat IPC: 3.17299 cumulative IPC: 3.1683 (Simulation time: 0 hr 39 min 15 sec) 

Warmup complete CPU 0 instructions: 50000001 cycles: 15781335 (Simulation time: 0 hr 39 min 15 sec) 

Heartbeat CPU 0 instructions: 60000000 cycles: 42575907 heartbeat IPC: 0.37321 cumulative IPC: 0.37321 (Simulation time: 0 hr 47 min 54 sec) 
Heartbeat CPU 0 instructions: 70000001 cycles: 69384810 heartbeat IPC: 0.37301 cumulative IPC: 0.37311 (Simulation time: 0 hr 56 min 26 sec) 
Heartbeat CPU 0 instructions: 80000001 cycles: 96183595 heartbeat IPC: 0.373151 cumulative IPC: 0.373124 (Simulation time: 1 hr 4 min 41 sec) 
Heartbeat CPU 0 instructions: 90000003 cycles: 122981704 heartbeat IPC: 0.373161 cumulative IPC: 0.373133 (Simulation time: 1 hr 12 min 44 sec) 
Heartbeat CPU 0 instructions: 100000000 cycles: 149561226 heartbeat IPC: 0.376229 cumulative IPC: 0.373748 (Simulation time: 1 hr 19 min 48 sec) 
Heartbeat CPU 0 instructions: 110000000 cycles: 175850626 heartbeat IPC: 0.380381 cumulative IPC: 0.374838 (Simulation time: 1 hr 26 min 24 sec) 
Heartbeat CPU 0 instructions: 120000001 cycles: 205285768 heartbeat IPC: 0.33973 cumulative IPC: 0.369384 (Simulation time: 1 hr 32 min 20 sec) 
Heartbeat CPU 0 instructions: 130000002 cycles: 231937738 heartbeat IPC: 0.375207 cumulative IPC: 0.370102 (Simulation time: 1 hr 38 min 4 sec) 
Heartbeat CPU 0 instructions: 140000000 cycles: 258427427 heartbeat IPC: 0.377505 cumulative IPC: 0.370911 (Simulation time: 1 hr 43 min 23 sec) 
Heartbeat CPU 0 instructions: 150000001 cycles: 285047830 heartbeat IPC: 0.375652 cumulative IPC: 0.371379 (Simulation time: 1 hr 48 min 57 sec) 
Heartbeat CPU 0 instructions: 160000001 cycles: 311745247 heartbeat IPC: 0.374568 cumulative IPC: 0.371667 (Simulation time: 1 hr 54 min 6 sec) 
Heartbeat CPU 0 instructions: 170000001 cycles: 338485713 heartbeat IPC: 0.373965 cumulative IPC: 0.371857 (Simulation time: 1 hr 58 min 1 sec) 
Heartbeat CPU 0 instructions: 180000001 cycles: 365164873 heartbeat IPC: 0.374824 cumulative IPC: 0.372084 (Simulation time: 2 hr 1 min 8 sec) 
Heartbeat CPU 0 instructions: 190000003 cycles: 391653839 heartbeat IPC: 0.377516 cumulative IPC: 0.372467 (Simulation time: 2 hr 3 min 25 sec) 
Heartbeat CPU 0 instructions: 200000001 cycles: 418176708 heartbeat IPC: 0.377033 cumulative IPC: 0.372768 (Simulation time: 2 hr 5 min 38 sec) 
Heartbeat CPU 0 instructions: 210000001 cycles: 444628808 heartbeat IPC: 0.378042 cumulative IPC: 0.373093 (Simulation time: 2 hr 8 min 10 sec) 
Heartbeat CPU 0 instructions: 220000000 cycles: 471330967 heartbeat IPC: 0.374502 cumulative IPC: 0.373176 (Simulation time: 2 hr 10 min 34 sec) 
Heartbeat CPU 0 instructions: 230000000 cycles: 498304050 heartbeat IPC: 0.37074 cumulative IPC: 0.373039 (Simulation time: 2 hr 12 min 25 sec) 
Heartbeat CPU 0 instructions: 240000001 cycles: 525059868 heartbeat IPC: 0.373751 cumulative IPC: 0.373077 (Simulation time: 2 hr 13 min 57 sec) 
Heartbeat CPU 0 instructions: 250000002 cycles: 551788276 heartbeat IPC: 0.374134 cumulative IPC: 0.373129 (Simulation time: 2 hr 15 min 13 sec) 
Finished CPU 0 instructions: 200000001 cycles: 536006941 cumulative IPC: 0.373129 (Simulation time: 2 hr 15 min 13 sec) 

ChampSim completed all CPUs

Region of Interest Statistics

CPU 0 cumulative IPC: 0.373129 instructions: 200000001 cycles: 536006941
ITLB TOTAL     ACCESS:   34869109  HIT:   34869048  MISS:         61  HIT %:    99.9998  MISS %: 0.00017494   MPKI: 0.000305
ITLB LOAD TRANSLATION ACCESS:   34869109  HIT:   34869048  MISS:         61  HIT %:    99.9998  MISS %: 0.00017494   MPKI: 0.000305
ITLB PREFETCH  REQUESTED:          0  ISSUED:          0  USEFUL:          0  USELESS:          0
ITLB USEFUL LOAD PREFETCHES:          0 PREFETCH ISSUED TO LOWER LEVEL:          0  ACCURACY: -nan
ITLB TIMELY PREFETCHES:          0 LATE PREFETCHES: 0 DROPPED PREFETCHES: 0
ITLB PREFETCHES SAME FILL-ORIGIN LEVEL: 0 DIFFERENT FILL-ORIGIN LEVEL: 0
ITLB AVERAGE MISS LATENCY: 160.82 cycles
ITLB RQ	ACCESS:   39854185	FORWARD:          0	MERGED:    4985067	TO_CACHE:   34869118

DTLB TOTAL     ACCESS:   55668622  HIT:   55587320  MISS:      81302  HIT %:     99.854  MISS %:   0.146046   MPKI: 0.40651
DTLB LOAD TRANSLATION ACCESS:   55668622  HIT:   55587320  MISS:      81302  HIT %:     99.854  MISS %:   0.146046   MPKI: 0.40651
DTLB PREFETCH  REQUESTED:          0  ISSUED:          0  USEFUL:          0  USELESS:          0
DTLB USEFUL LOAD PREFETCHES:          0 PREFETCH ISSUED TO LOWER LEVEL:          0  ACCURACY: -nan
DTLB TIMELY PREFETCHES:          0 LATE PREFETCHES: 0 DROPPED PREFETCHES: 0
DTLB PREFETCHES SAME FILL-ORIGIN LEVEL: 0 DIFFERENT FILL-ORIGIN LEVEL: 0
DTLB AVERAGE MISS LATENCY: 10.6706 cycles
DTLB RQ	ACCESS:   64399540	FORWARD:          0	MERGED:    8728140	TO_CACHE:   55671400

STLB TOTAL     ACCESS:     877322  HIT:     876275  MISS:       1047  HIT %:    99.8807  MISS %:    0.11934   MPKI: 0.005235
STLB LOAD TRANSLATION ACCESS:      81363  HIT:      80318  MISS:       1045  HIT %:    98.7156  MISS %:    1.28437   MPKI: 0.005225
STLB TRANSLATION FROM L1D PREFETCHER ACCESS:     795959  HIT:     795957  MISS:          2  HIT %:    99.9997  MISS %: 0.000251269   MPKI: 1e-05
STLB PREFETCH  REQUESTED:          0  ISSUED:          0  USEFUL:          2  USELESS:          0
STLB USEFUL LOAD PREFETCHES:          2 PREFETCH ISSUED TO LOWER LEVEL:          0  ACCURACY: inf
STLB TIMELY PREFETCHES:          2 LATE PREFETCHES: 184 DROPPED PREFETCHES: 19556
STLB PREFETCHES SAME FILL-ORIGIN LEVEL: 0 DIFFERENT FILL-ORIGIN LEVEL: 0
STLB AVERAGE MISS LATENCY: 130.053 cycles
STLB RQ	ACCESS:    4841579	FORWARD:          0	MERGED:    3939226	TO_CACHE:     902353

STLB Hit, L1D data hit: 0
STLB Hit, L2C data hit: 0
STLB Hit, LLC data hit: 0
STLB Hit, LLC data miss: 0
STLB STLB hints to L2: 0
L1D TOTAL     ACCESS:   68011959  HIT:   67503804  MISS:     508155  HIT %:    99.2528  MISS %:   0.747155   MPKI: 2.54077
L1D LOAD      ACCESS:   41081145  HIT:   40784791  MISS:     296354  HIT %:    99.2786  MISS %:   0.721387   MPKI: 1.48177
L1D RFO       ACCESS:   23074673  HIT:   23001501  MISS:      73172  HIT %:    99.6829  MISS %:    0.31711   MPKI: 0.36586
L1D PREFETCH  ACCESS:    3856141  HIT:    3717512  MISS:     138629  HIT %:     96.405  MISS %:    3.59502   MPKI: 0.693145
L1D PREFETCH  REQUESTED:    9820849  ISSUED:    9819479  USEFUL:     115118  USELESS:      23614
L1D USEFUL LOAD PREFETCHES:     115118 PREFETCH ISSUED TO LOWER LEVEL:     878719  ACCURACY: 13.1007
L1D TIMELY PREFETCHES:     115118 LATE PREFETCHES: 3250 DROPPED PREFETCHES: 50867
L1D PREFETCHES SAME FILL-ORIGIN LEVEL: 141879 DIFFERENT FILL-ORIGIN LEVEL: 736840
L1D AVERAGE MISS LATENCY: 33.0364 cycles
L1D RQ	ACCESS:   52668572	FORWARD:          0	MERGED:    9414498	TO_CACHE:   41085100
L1D WQ	ACCESS:   23665850	FORWARD:    2168974	MERGED:     351410	TO_CACHE:   23314440
L1D PQ	ACCESS:    5059263	FORWARD:          0	MERGED:     299047	TO_CACHE:    4760216

L1D UNIQUE REGIONS ACCESSED: 0
L1D REGIONS CONFLICTS: 0
L1D Cross Page Prefetch Requests: 581045
L1D Same Page Prefetch Requests: 5513501
L1D ROI Sum of L1D PQ occupancy: 70185547
L1D PREFETCHES PUSHED FROM L2C: 0
L1I TOTAL     ACCESS:   39850156  HIT:   39838032  MISS:      12124  HIT %:    99.9696  MISS %:   0.030424   MPKI: 0.06062
L1I LOAD      ACCESS:   39850156  HIT:   39838032  MISS:      12124  HIT %:    99.9696  MISS %:   0.030424   MPKI: 0.06062
L1I PREFETCH  REQUESTED:          0  ISSUED:          0  USEFUL:          0  USELESS:          0
L1I USEFUL LOAD PREFETCHES:          0 PREFETCH ISSUED TO LOWER LEVEL:          0  ACCURACY: -nan
L1I TIMELY PREFETCHES:          0 LATE PREFETCHES: 0 DROPPED PREFETCHES: 0
L1I PREFETCHES SAME FILL-ORIGIN LEVEL: 0 DIFFERENT FILL-ORIGIN LEVEL: 0
L1I AVERAGE MISS LATENCY: 25.7978 cycles
L1I RQ	ACCESS:   57003130	FORWARD:          0	MERGED:   17148945	TO_CACHE:   39854185

BTB TOTAL     ACCESS:   31321754  HIT:   29092027  MISS:    2229727  HIT %:    92.8812  MISS %:    7.11878   MPKI: 11.1486
BTB BRANCH_DIRECT_JUMP	ACCESS:    1079156  HIT:    1078977  MISS:        179
BTB BRANCH_INDIRECT	ACCESS:       1643  HIT:       1338  MISS:        305
BTB BRANCH_CONDITIONAL	ACCESS:   18470985  HIT:   18469370  MISS:       1615
BTB BRANCH_DIRECT_CALL	ACCESS:    5884946  HIT:    5884134  MISS:        812
BTB BRANCH_INDIRECT_CALL	ACCESS:         39  HIT:         23  MISS:         16
BTB BRANCH_RETURN	ACCESS:    5884985  HIT:    3658185  MISS:    2226800
BTB BRANCH_OTHER ACCESS:          0  HIT:          0  MISS:          0

L2C TOTAL     ACCESS:    1370216  HIT:    1294171  MISS:      76045  HIT %:    94.4501  MISS %:    5.54985   MPKI: 0.380225
L2C LOAD      ACCESS:     305228  HIT:     295607  MISS:       9621  HIT %:    96.8479  MISS %:    3.15207   MPKI: 0.048105
L2C DATA LOAD MPKI: 0.043815
L2C INSTRUCTION LOAD MPKI: 0.00429
L2C RFO       ACCESS:      73171  HIT:      40333  MISS:      32838  HIT %:    55.1216  MISS %:    44.8784   MPKI: 0.16419
L2C PREFETCH  ACCESS:     860833  HIT:     827926  MISS:      32907  HIT %:    96.1773  MISS %:    3.82269   MPKI: 0.164535
L2C DATA PREFETCH MPKI: 0.164535
L2C INSTRUCTION PREFETCH MPKI: 0
L2C WRITEBACK ACCESS:     110197  HIT:     109873  MISS:        324  HIT %:     99.706  MISS %:   0.294019   MPKI: 0.00162
L2C LOAD TRANSLATION ACCESS:       1045  HIT:        761  MISS:        284  HIT %:     72.823  MISS %:     27.177   MPKI: 0.00142
L2C TRANSLATION FROM L1D PREFETCHER ACCESS:      19742  HIT:      19671  MISS:         71  HIT %:    99.6404  MISS %:   0.359639   MPKI: 0.000355
L2C PREFETCH  REQUESTED:          0  ISSUED:          0  USEFUL:       1818  USELESS:      30542
L2C USEFUL LOAD PREFETCHES:       1818 PREFETCH ISSUED TO LOWER LEVEL:      32978  ACCURACY: 5.51277
L2C TIMELY PREFETCHES:       1818 LATE PREFETCHES: 71 DROPPED PREFETCHES: 0
L2C PREFETCHES SAME FILL-ORIGIN LEVEL: 8556 DIFFERENT FILL-ORIGIN LEVEL: 0
L2C AVERAGE MISS LATENCY: 135.5 cycles
L2C RQ	ACCESS:     399187	FORWARD:          0	MERGED:          0	TO_CACHE:     399186
L2C WQ	ACCESS:     110197	FORWARD:          2	MERGED:          0	TO_CACHE:     110197
L2C PQ	ACCESS:     878719	FORWARD:          0	MERGED:        138	TO_CACHE:     878580

L2C Instructions Evicting Data 802
L2C Translations Evicting Data 319
L2C Data Evicting Data 70162
L2C Instructions Evicting Instructions 20
L2C Translations Evicting Instructions 5
L2C Data Evicting Instructions 990
L2C Instructions Evicting Translations 4
L2C Translations Evicting Translations 0
L2C Data Evicting Translations 438
L2C Dense regions hint from L2: 0
PSCL5 TOTAL     ACCESS:      20787  HIT:      20787  MISS:          0  HIT %:        100  MISS %:          0   MPKI: 0
PSCL5 LOAD TRANSLATION ACCESS:       1045  HIT:       1045  MISS:          0  HIT %:        100  MISS %:          0   MPKI: 0
PSCL5 TRANSLATION FROM L1D PREFETCHER ACCESS:      19742  HIT:      19742  MISS:          0  HIT %:        100  MISS %:          0   MPKI: 0
PSCL5 PREFETCH  REQUESTED:          0  ISSUED:          0  USEFUL:          0  USELESS:          0
PSCL5 USEFUL LOAD PREFETCHES:          0 PREFETCH ISSUED TO LOWER LEVEL:          0  ACCURACY: -nan
PSCL5 TIMELY PREFETCHES:          0 LATE PREFETCHES: 0 DROPPED PREFETCHES: 0
PSCL5 PREFETCHES SAME FILL-ORIGIN LEVEL: 0 DIFFERENT FILL-ORIGIN LEVEL: 0

PSCL4 TOTAL     ACCESS:      20787  HIT:      20787  MISS:          0  HIT %:        100  MISS %:          0   MPKI: 0
PSCL4 LOAD TRANSLATION ACCESS:       1045  HIT:       1045  MISS:          0  HIT %:        100  MISS %:          0   MPKI: 0
PSCL4 TRANSLATION FROM L1D PREFETCHER ACCESS:      19742  HIT:      19742  MISS:          0  HIT %:        100  MISS %:          0   MPKI: 0
PSCL4 PREFETCH  REQUESTED:          0  ISSUED:          0  USEFUL:          0  USELESS:          0
PSCL4 USEFUL LOAD PREFETCHES:          0 PREFETCH ISSUED TO LOWER LEVEL:          0  ACCURACY: -nan
PSCL4 TIMELY PREFETCHES:          0 LATE PREFETCHES: 0 DROPPED PREFETCHES: 0
PSCL4 PREFETCHES SAME FILL-ORIGIN LEVEL: 0 DIFFERENT FILL-ORIGIN LEVEL: 0

PSCL3 TOTAL     ACCESS:      20787  HIT:      20787  MISS:          0  HIT %:        100  MISS %:          0   MPKI: 0
PSCL3 LOAD TRANSLATION ACCESS:       1045  HIT:       1045  MISS:          0  HIT %:        100  MISS %:          0   MPKI: 0
PSCL3 TRANSLATION FROM L1D PREFETCHER ACCESS:      19742  HIT:      19742  MISS:          0  HIT %:        100  MISS %:          0   MPKI: 0
PSCL3 PREFETCH  REQUESTED:          0  ISSUED:          0  USEFUL:          0  USELESS:          0
PSCL3 USEFUL LOAD PREFETCHES:          0 PREFETCH ISSUED TO LOWER LEVEL:          0  ACCURACY: -nan
PSCL3 TIMELY PREFETCHES:          0 LATE PREFETCHES: 0 DROPPED PREFETCHES: 0
PSCL3 PREFETCHES SAME FILL-ORIGIN LEVEL: 0 DIFFERENT FILL-ORIGIN LEVEL: 0

PSCL2 TOTAL     ACCESS:      20787  HIT:      20785  MISS:          2  HIT %:    99.9904  MISS %:  0.0096214   MPKI: 1e-05
PSCL2 LOAD TRANSLATION ACCESS:       1045  HIT:       1043  MISS:          2  HIT %:    99.8086  MISS %:   0.191388   MPKI: 1e-05
PSCL2 TRANSLATION FROM L1D PREFETCHER ACCESS:      19742  HIT:      19742  MISS:          0  HIT %:        100  MISS %:          0   MPKI: 0
PSCL2 PREFETCH  REQUESTED:          0  ISSUED:          0  USEFUL:          0  USELESS:          0
PSCL2 USEFUL LOAD PREFETCHES:          0 PREFETCH ISSUED TO LOWER LEVEL:          0  ACCURACY: -nan
PSCL2 TIMELY PREFETCHES:          0 LATE PREFETCHES: 0 DROPPED PREFETCHES: 0
PSCL2 PREFETCHES SAME FILL-ORIGIN LEVEL: 0 DIFFERENT FILL-ORIGIN LEVEL: 0

LLC TOTAL     ACCESS:     108976  HIT:      48023  MISS:      60953  HIT %:    44.0675  MISS %:    55.9325   MPKI: 0.304765
LLC LOAD      ACCESS:       9550  HIT:       3120  MISS:       6430  HIT %:    32.6702  MISS %:    67.3298   MPKI: 0.03215
LLC RFO       ACCESS:      32838  HIT:        450  MISS:      32388  HIT %:    1.37036  MISS %:    98.6296   MPKI: 0.16194
LLC PREFETCH  ACCESS:      32978  HIT:      11751  MISS:      21227  HIT %:    35.6328  MISS %:    64.3672   MPKI: 0.106135
LLC WRITEBACK ACCESS:      33255  HIT:      32592  MISS:        663  HIT %:    98.0063  MISS %:    1.99369   MPKI: 0.003315
LLC LOAD TRANSLATION ACCESS:        284  HIT:         82  MISS:        202  HIT %:    28.8732  MISS %:    71.1268   MPKI: 0.00101
LLC TRANSLATION FROM L1D PREFETCHER ACCESS:         71  HIT:         28  MISS:         43  HIT %:    39.4366  MISS %:    60.5634   MPKI: 0.000215
LLC PREFETCH  REQUESTED:          0  ISSUED:          0  USEFUL:        439  USELESS:      17799
LLC USEFUL LOAD PREFETCHES:        439 PREFETCH ISSUED TO LOWER LEVEL:      21227  ACCURACY: 2.06812
LLC TIMELY PREFETCHES:        439 LATE PREFETCHES: 0 DROPPED PREFETCHES: 0
LLC PREFETCHES SAME FILL-ORIGIN LEVEL: 0 DIFFERENT FILL-ORIGIN LEVEL: 0
LLC AVERAGE MISS LATENCY: 131.284 cycles
LLC RQ	ACCESS:      42743	FORWARD:          0	MERGED:          0	TO_CACHE:      42743
LLC WQ	ACCESS:      33255	FORWARD:          0	MERGED:          0	TO_CACHE:      33255
LLC PQ	ACCESS:      32978	FORWARD:          0	MERGED:          0	TO_CACHE:      32978

LLC Dense regions hint to LLC: 0

RAW hits: 1902424
Loads Generated: 54570996
Loads sent to L1D: 52668572
Stores Generated: 23665851
Stores sent to L1D: 23665850
Major fault: 0 Minor fault: 1445
Allocated PAGES: 1445

DRAM Statistics
 CHANNEL 0
 RQ ROW_BUFFER_HIT:      26650  ROW_BUFFER_MISS:      33496
 DBUS_CONGESTED:         12
 WQ ROW_BUFFER_HIT:       2893  ROW_BUFFER_MISS:       8128  FULL:          0

 AVG_CONGESTED_CYCLE: 6
 All warmup complete: 2
Channel 0 Bank busy for read cycles: 0
Channel 0 Bank busy for write cycles: 0
Channel 0
Rank 0
0banks busy for read cycles: 531215090
0banks busy for write cycles: 1782
1banks busy for read cycles: 2632846
1banks busy for write cycles: 304075
2banks busy for read cycles: 998531
2banks busy for write cycles: 53704
3banks busy for read cycles: 212139
3banks busy for write cycles: 36348
4banks busy for read cycles: 77983
4banks busy for write cycles: 37867
5banks busy for read cycles: 36563
5banks busy for write cycles: 24604
6banks busy for read cycles: 31460
6banks busy for write cycles: 24604
7banks busy for read cycles: 20342
7banks busy for write cycles: 35129
8banks busy for read cycles: 35028
8banks busy for write cycles: 228847

CPU 0 Branch Prediction Accuracy: 89.9351% MPKI: 10.0152 Average ROB Occupancy at Mispredict: 24.334
Branch types
NOT_BRANCH: 167247609 83.6238%
BRANCH_DIRECT_JUMP: 1079156 0.539578%
BRANCH_INDIRECT: 1643 0.0008215%
BRANCH_CONDITIONAL: 19901255 9.95063%
BRANCH_DIRECT_CALL: 5884946 2.94247%
BRANCH_INDIRECT_CALL: 39 1.95e-05%
BRANCH_RETURN: 5884985 2.94249%
BRANCH_OTHER: 0 0%

DRAM PAGES: 1048576
Allocated PAGES: 1445
