 (TOTAL 523355 bits 511 Kbits) 
*** ChampSim Multicore Out-of-Order Simulator ***

Warmup Instructions: 50000000
Simulation Instructions: 200000000
Number of CPUs: 1
LLC sets: 2048
LLC ways: 16
Off-chip DRAM Size: 4096 MB Channels: 1 Width: 64-bit Data Rate: 6400 MT/s
argv[0]: ./ChampSim/Berti/bin/tagescl-no-vberti-no-no-no-no-no-lru-lru-lru-srrip-drrip-lru-lru-lru-1core-no
argv[1]: -warmup_instructions
argv[2]: 50000000
argv[3]: -simulation_instructions
argv[4]: 200000000
argv[5]: -traces
argv[6]: traces/spec2k17_ten/641.leela_s-862B.champsimtrace.xz
CPU 0 runs traces/spec2k17_ten/641.leela_s-862B.champsimtrace.xz
.xz
CPU 0 Tage branch predictor
BTB has LRU replacement policy
ITLB has LRU replacement policy
DTLB has LRU replacement policy
STLB has LRU replacement policy
L1I has LRU replacement policy
History Sets: 8
History Ways: 16
BERTI Size: 16
BERTI Stride Size: 16
L1D has LRU replacement policy
Initialize SRRIP state for L2C
Initialize DRRIP state for LLC
Heartbeat CPU 0 instructions: 10000001 cycles: 3167458 heartbeat IPC: 3.15711 cumulative IPC: 3.15711 (Simulation time: 0 hr 7 min 46 sec) 
Heartbeat CPU 0 instructions: 20000003 cycles: 6338014 heartbeat IPC: 3.15402 cumulative IPC: 3.15556 (Simulation time: 0 hr 15 min 43 sec) 
Heartbeat CPU 0 instructions: 30000000 cycles: 9508218 heartbeat IPC: 3.15437 cumulative IPC: 3.15517 (Simulation time: 0 hr 22 min 24 sec) 
Heartbeat CPU 0 instructions: 40000003 cycles: 12675771 heartbeat IPC: 3.15701 cumulative IPC: 3.15563 (Simulation time: 0 hr 28 min 0 sec) 
Heartbeat CPU 0 instructions: 50000002 cycles: 15840562 heartbeat IPC: 3.15977 cumulative IPC: 3.15645 (Simulation time: 0 hr 35 min 50 sec) 

Warmup complete CPU 0 instructions: 50000002 cycles: 15840562 (Simulation time: 0 hr 35 min 50 sec) 

Heartbeat CPU 0 instructions: 60000002 cycles: 42926081 heartbeat IPC: 0.369201 cumulative IPC: 0.369201 (Simulation time: 0 hr 43 min 12 sec) 
Heartbeat CPU 0 instructions: 70000001 cycles: 70018643 heartbeat IPC: 0.369105 cumulative IPC: 0.369153 (Simulation time: 0 hr 50 min 23 sec) 
Heartbeat CPU 0 instructions: 80000001 cycles: 96702108 heartbeat IPC: 0.374764 cumulative IPC: 0.371005 (Simulation time: 0 hr 58 min 23 sec) 
Heartbeat CPU 0 instructions: 90000000 cycles: 123609624 heartbeat IPC: 0.371643 cumulative IPC: 0.371164 (Simulation time: 1 hr 6 min 42 sec) 
Heartbeat CPU 0 instructions: 100000002 cycles: 150391965 heartbeat IPC: 0.37338 cumulative IPC: 0.371605 (Simulation time: 1 hr 14 min 44 sec) 
Heartbeat CPU 0 instructions: 110000000 cycles: 177019147 heartbeat IPC: 0.375556 cumulative IPC: 0.372258 (Simulation time: 1 hr 22 min 0 sec) 
Heartbeat CPU 0 instructions: 120000001 cycles: 203627394 heartbeat IPC: 0.375823 cumulative IPC: 0.372763 (Simulation time: 1 hr 28 min 19 sec) 
Heartbeat CPU 0 instructions: 130000003 cycles: 230441941 heartbeat IPC: 0.372932 cumulative IPC: 0.372784 (Simulation time: 1 hr 33 min 45 sec) 
Heartbeat CPU 0 instructions: 140000002 cycles: 257154609 heartbeat IPC: 0.374354 cumulative IPC: 0.372958 (Simulation time: 1 hr 39 min 51 sec) 
Heartbeat CPU 0 instructions: 150000000 cycles: 283952679 heartbeat IPC: 0.373161 cumulative IPC: 0.372978 (Simulation time: 1 hr 45 min 17 sec) 
Heartbeat CPU 0 instructions: 160000000 cycles: 310908036 heartbeat IPC: 0.370984 cumulative IPC: 0.372796 (Simulation time: 1 hr 50 min 18 sec) 
Heartbeat CPU 0 instructions: 170000002 cycles: 337545656 heartbeat IPC: 0.375409 cumulative IPC: 0.373012 (Simulation time: 1 hr 54 min 23 sec) 
Heartbeat CPU 0 instructions: 180000002 cycles: 364292999 heartbeat IPC: 0.373869 cumulative IPC: 0.373078 (Simulation time: 1 hr 58 min 42 sec) 
Heartbeat CPU 0 instructions: 190000002 cycles: 391279842 heartbeat IPC: 0.370551 cumulative IPC: 0.372897 (Simulation time: 2 hr 1 min 10 sec) 
Heartbeat CPU 0 instructions: 200000000 cycles: 417937452 heartbeat IPC: 0.375127 cumulative IPC: 0.373044 (Simulation time: 2 hr 4 min 11 sec) 
Heartbeat CPU 0 instructions: 210000002 cycles: 444687446 heartbeat IPC: 0.373832 cumulative IPC: 0.373094 (Simulation time: 2 hr 6 min 52 sec) 
Heartbeat CPU 0 instructions: 220000000 cycles: 471544098 heartbeat IPC: 0.372347 cumulative IPC: 0.37305 (Simulation time: 2 hr 8 min 46 sec) 
Heartbeat CPU 0 instructions: 230000001 cycles: 498381022 heartbeat IPC: 0.372621 cumulative IPC: 0.373026 (Simulation time: 2 hr 10 min 26 sec) 
Heartbeat CPU 0 instructions: 240000001 cycles: 525152828 heartbeat IPC: 0.373527 cumulative IPC: 0.373052 (Simulation time: 2 hr 11 min 58 sec) 
Heartbeat CPU 0 instructions: 250000000 cycles: 552236268 heartbeat IPC: 0.369229 cumulative IPC: 0.372859 (Simulation time: 2 hr 13 min 19 sec) 
Finished CPU 0 instructions: 200000000 cycles: 536395721 cumulative IPC: 0.372859 (Simulation time: 2 hr 13 min 19 sec) 

ChampSim completed all CPUs

Region of Interest Statistics

CPU 0 cumulative IPC: 0.372859 instructions: 200000000 cycles: 536395721
ITLB TOTAL     ACCESS:   34805402  HIT:   34805402  MISS:          0  HIT %:        100  MISS %:          0   MPKI: 0
ITLB LOAD TRANSLATION ACCESS:   34805402  HIT:   34805402  MISS:          0  HIT %:        100  MISS %:          0   MPKI: 0
ITLB PREFETCH  REQUESTED:          0  ISSUED:          0  USEFUL:          0  USELESS:          0
ITLB USEFUL LOAD PREFETCHES:          0 PREFETCH ISSUED TO LOWER LEVEL:          0  ACCURACY: -nan
ITLB TIMELY PREFETCHES:          0 LATE PREFETCHES: 0 DROPPED PREFETCHES: 0
ITLB PREFETCHES SAME FILL-ORIGIN LEVEL: 0 DIFFERENT FILL-ORIGIN LEVEL: 0
ITLB AVERAGE MISS LATENCY: -nan cycles
ITLB RQ	ACCESS:   39726466	FORWARD:          0	MERGED:    4921065	TO_CACHE:   34805401

DTLB TOTAL     ACCESS:   56184679  HIT:   56097513  MISS:      87166  HIT %:    99.8449  MISS %:   0.155142   MPKI: 0.43583
DTLB LOAD TRANSLATION ACCESS:   56184679  HIT:   56097513  MISS:      87166  HIT %:    99.8449  MISS %:   0.155142   MPKI: 0.43583
DTLB PREFETCH  REQUESTED:          0  ISSUED:          0  USEFUL:          0  USELESS:          0
DTLB USEFUL LOAD PREFETCHES:          0 PREFETCH ISSUED TO LOWER LEVEL:          0  ACCURACY: -nan
DTLB TIMELY PREFETCHES:          0 LATE PREFETCHES: 0 DROPPED PREFETCHES: 0
DTLB PREFETCHES SAME FILL-ORIGIN LEVEL: 0 DIFFERENT FILL-ORIGIN LEVEL: 0
DTLB AVERAGE MISS LATENCY: 9.25993 cycles
DTLB RQ	ACCESS:   64468760	FORWARD:          0	MERGED:    8283082	TO_CACHE:   56185678

STLB TOTAL     ACCESS:     751398  HIT:     751227  MISS:        171  HIT %:    99.9772  MISS %:  0.0227576   MPKI: 0.000855
STLB LOAD TRANSLATION ACCESS:      87166  HIT:      86995  MISS:        171  HIT %:    99.8038  MISS %:   0.196177   MPKI: 0.000855
STLB TRANSLATION FROM L1D PREFETCHER ACCESS:     664232  HIT:     664232  MISS:          0  HIT %:        100  MISS %:          0   MPKI: 0
STLB PREFETCH  REQUESTED:          0  ISSUED:          0  USEFUL:          0  USELESS:          0
STLB USEFUL LOAD PREFETCHES:          0 PREFETCH ISSUED TO LOWER LEVEL:          0  ACCURACY: -nan
STLB TIMELY PREFETCHES:          0 LATE PREFETCHES: 0 DROPPED PREFETCHES: 13847
STLB PREFETCHES SAME FILL-ORIGIN LEVEL: 0 DIFFERENT FILL-ORIGIN LEVEL: 0
STLB AVERAGE MISS LATENCY: 166.62 cycles
STLB RQ	ACCESS:    3544375	FORWARD:          0	MERGED:    2775736	TO_CACHE:     768639

STLB Hit, L1D data hit: 0
STLB Hit, L2C data hit: 0
STLB Hit, LLC data hit: 0
STLB Hit, LLC data miss: 0
STLB STLB hints to L2: 0
L1D TOTAL     ACCESS:   67055313  HIT:   66643523  MISS:     411790  HIT %:    99.3859  MISS %:   0.614105   MPKI: 2.05895
L1D LOAD      ACCESS:   41161068  HIT:   40914309  MISS:     246759  HIT %:    99.4005  MISS %:   0.599496   MPKI: 1.23379
L1D RFO       ACCESS:   23248374  HIT:   23207268  MISS:      41106  HIT %:    99.8232  MISS %:   0.176812   MPKI: 0.20553
L1D PREFETCH  ACCESS:    2645871  HIT:    2521946  MISS:     123925  HIT %:    95.3163  MISS %:    4.68371   MPKI: 0.619625
L1D PREFETCH  REQUESTED:    7104623  ISSUED:    7104372  USEFUL:      99236  USELESS:      24714
L1D USEFUL LOAD PREFETCHES:      99236 PREFETCH ISSUED TO LOWER LEVEL:     891828  ACCURACY: 11.1273
L1D TIMELY PREFETCHES:      99236 LATE PREFETCHES: 5805 DROPPED PREFETCHES: 33876
L1D PREFETCHES SAME FILL-ORIGIN LEVEL: 129730 DIFFERENT FILL-ORIGIN LEVEL: 762098
L1D AVERAGE MISS LATENCY: 15.9205 cycles
L1D RQ	ACCESS:   52692142	FORWARD:          0	MERGED:    9356242	TO_CACHE:   41164646
L1D WQ	ACCESS:   23647431	FORWARD:    2171256	MERGED:     343317	TO_CACHE:   23304114
L1D PQ	ACCESS:    3647163	FORWARD:          0	MERGED:     189952	TO_CACHE:    3457209

L1D UNIQUE REGIONS ACCESSED: 0
L1D REGIONS CONFLICTS: 0
L1D Cross Page Prefetch Requests: 459286
L1D Same Page Prefetch Requests: 4074873
L1D ROI Sum of L1D PQ occupancy: 50537052
L1D PREFETCHES PUSHED FROM L2C: 0
L1I TOTAL     ACCESS:   39721637  HIT:   39709581  MISS:      12056  HIT %:    99.9696  MISS %:  0.0303512   MPKI: 0.06028
L1I LOAD      ACCESS:   39721637  HIT:   39709581  MISS:      12056  HIT %:    99.9696  MISS %:  0.0303512   MPKI: 0.06028
L1I PREFETCH  REQUESTED:          0  ISSUED:          0  USEFUL:          0  USELESS:          0
L1I USEFUL LOAD PREFETCHES:          0 PREFETCH ISSUED TO LOWER LEVEL:          0  ACCURACY: -nan
L1I TIMELY PREFETCHES:          0 LATE PREFETCHES: 0 DROPPED PREFETCHES: 0
L1I PREFETCHES SAME FILL-ORIGIN LEVEL: 0 DIFFERENT FILL-ORIGIN LEVEL: 0
L1I AVERAGE MISS LATENCY: 14.1825 cycles
L1I RQ	ACCESS:   56903562	FORWARD:          0	MERGED:   17177096	TO_CACHE:   39726466

BTB TOTAL     ACCESS:   31358783  HIT:   29062223  MISS:    2296560  HIT %:    92.6765  MISS %:     7.3235   MPKI: 11.4828
BTB BRANCH_DIRECT_JUMP	ACCESS:    1066547  HIT:    1066464  MISS:         83
BTB BRANCH_INDIRECT	ACCESS:       1307  HIT:       1194  MISS:        113
BTB BRANCH_CONDITIONAL	ACCESS:   18451410  HIT:   18450222  MISS:       1188
BTB BRANCH_DIRECT_CALL	ACCESS:    5919759  HIT:    5919257  MISS:        502
BTB BRANCH_INDIRECT_CALL	ACCESS:          0  HIT:          0  MISS:          0
BTB BRANCH_RETURN	ACCESS:    5919760  HIT:    3625086  MISS:    2294674
BTB BRANCH_OTHER ACCESS:          0  HIT:          0  MISS:          0

L2C TOTAL     ACCESS:    1273272  HIT:    1267165  MISS:       6107  HIT %:    99.5204  MISS %:    0.47963   MPKI: 0.030535
L2C LOAD      ACCESS:     253009  HIT:     249915  MISS:       3094  HIT %:    98.7771  MISS %:    1.22288   MPKI: 0.01547
L2C DATA LOAD MPKI: 0.01536
L2C INSTRUCTION LOAD MPKI: 0.00011
L2C RFO       ACCESS:      41106  HIT:      39679  MISS:       1427  HIT %:    96.5285  MISS %:    3.47151   MPKI: 0.007135
L2C PREFETCH  ACCESS:     891477  HIT:     890049  MISS:       1428  HIT %:    99.8398  MISS %:   0.160184   MPKI: 0.00714
L2C DATA PREFETCH MPKI: 0.00714
L2C INSTRUCTION PREFETCH MPKI: 0
L2C WRITEBACK ACCESS:      73662  HIT:      73600  MISS:         62  HIT %:    99.9158  MISS %:  0.0841682   MPKI: 0.00031
L2C LOAD TRANSLATION ACCESS:        171  HIT:        109  MISS:         62  HIT %:    63.7427  MISS %:    36.2573   MPKI: 0.00031
L2C TRANSLATION FROM L1D PREFETCHER ACCESS:      13847  HIT:      13813  MISS:         34  HIT %:    99.7545  MISS %:   0.245541   MPKI: 0.00017
L2C PREFETCH  REQUESTED:          0  ISSUED:          0  USEFUL:        559  USELESS:        861
L2C USEFUL LOAD PREFETCHES:        559 PREFETCH ISSUED TO LOWER LEVEL:       1434  ACCURACY: 38.9819
L2C TIMELY PREFETCHES:        559 LATE PREFETCHES: 6 DROPPED PREFETCHES: 0
L2C PREFETCHES SAME FILL-ORIGIN LEVEL: 821 DIFFERENT FILL-ORIGIN LEVEL: 0
L2C AVERAGE MISS LATENCY: 87.961 cycles
L2C RQ	ACCESS:     308134	FORWARD:          0	MERGED:          0	TO_CACHE:     308133
L2C WQ	ACCESS:      73662	FORWARD:          5	MERGED:          0	TO_CACHE:      73662
L2C PQ	ACCESS:     891828	FORWARD:          0	MERGED:         65	TO_CACHE:     891759

L2C Instructions Evicting Data 14
L2C Translations Evicting Data 50
L2C Data Evicting Data 4202
L2C Instructions Evicting Instructions 0
L2C Translations Evicting Instructions 2
L2C Data Evicting Instructions 136
L2C Instructions Evicting Translations 0
L2C Translations Evicting Translations 1
L2C Data Evicting Translations 100
L2C Dense regions hint from L2: 0
PSCL5 TOTAL     ACCESS:      14018  HIT:      14018  MISS:          0  HIT %:        100  MISS %:          0   MPKI: 0
PSCL5 LOAD TRANSLATION ACCESS:        171  HIT:        171  MISS:          0  HIT %:        100  MISS %:          0   MPKI: 0
PSCL5 TRANSLATION FROM L1D PREFETCHER ACCESS:      13847  HIT:      13847  MISS:          0  HIT %:        100  MISS %:          0   MPKI: 0
PSCL5 PREFETCH  REQUESTED:          0  ISSUED:          0  USEFUL:          0  USELESS:          0
PSCL5 USEFUL LOAD PREFETCHES:          0 PREFETCH ISSUED TO LOWER LEVEL:          0  ACCURACY: -nan
PSCL5 TIMELY PREFETCHES:          0 LATE PREFETCHES: 0 DROPPED PREFETCHES: 0
PSCL5 PREFETCHES SAME FILL-ORIGIN LEVEL: 0 DIFFERENT FILL-ORIGIN LEVEL: 0

PSCL4 TOTAL     ACCESS:      14018  HIT:      14018  MISS:          0  HIT %:        100  MISS %:          0   MPKI: 0
PSCL4 LOAD TRANSLATION ACCESS:        171  HIT:        171  MISS:          0  HIT %:        100  MISS %:          0   MPKI: 0
PSCL4 TRANSLATION FROM L1D PREFETCHER ACCESS:      13847  HIT:      13847  MISS:          0  HIT %:        100  MISS %:          0   MPKI: 0
PSCL4 PREFETCH  REQUESTED:          0  ISSUED:          0  USEFUL:          0  USELESS:          0
PSCL4 USEFUL LOAD PREFETCHES:          0 PREFETCH ISSUED TO LOWER LEVEL:          0  ACCURACY: -nan
PSCL4 TIMELY PREFETCHES:          0 LATE PREFETCHES: 0 DROPPED PREFETCHES: 0
PSCL4 PREFETCHES SAME FILL-ORIGIN LEVEL: 0 DIFFERENT FILL-ORIGIN LEVEL: 0

PSCL3 TOTAL     ACCESS:      14018  HIT:      14018  MISS:          0  HIT %:        100  MISS %:          0   MPKI: 0
PSCL3 LOAD TRANSLATION ACCESS:        171  HIT:        171  MISS:          0  HIT %:        100  MISS %:          0   MPKI: 0
PSCL3 TRANSLATION FROM L1D PREFETCHER ACCESS:      13847  HIT:      13847  MISS:          0  HIT %:        100  MISS %:          0   MPKI: 0
PSCL3 PREFETCH  REQUESTED:          0  ISSUED:          0  USEFUL:          0  USELESS:          0
PSCL3 USEFUL LOAD PREFETCHES:          0 PREFETCH ISSUED TO LOWER LEVEL:          0  ACCURACY: -nan
PSCL3 TIMELY PREFETCHES:          0 LATE PREFETCHES: 0 DROPPED PREFETCHES: 0
PSCL3 PREFETCHES SAME FILL-ORIGIN LEVEL: 0 DIFFERENT FILL-ORIGIN LEVEL: 0

PSCL2 TOTAL     ACCESS:      14018  HIT:      14018  MISS:          0  HIT %:        100  MISS %:          0   MPKI: 0
PSCL2 LOAD TRANSLATION ACCESS:        171  HIT:        171  MISS:          0  HIT %:        100  MISS %:          0   MPKI: 0
PSCL2 TRANSLATION FROM L1D PREFETCHER ACCESS:      13847  HIT:      13847  MISS:          0  HIT %:        100  MISS %:          0   MPKI: 0
PSCL2 PREFETCH  REQUESTED:          0  ISSUED:          0  USEFUL:          0  USELESS:          0
PSCL2 USEFUL LOAD PREFETCHES:          0 PREFETCH ISSUED TO LOWER LEVEL:          0  ACCURACY: -nan
PSCL2 TIMELY PREFETCHES:          0 LATE PREFETCHES: 0 DROPPED PREFETCHES: 0
PSCL2 PREFETCHES SAME FILL-ORIGIN LEVEL: 0 DIFFERENT FILL-ORIGIN LEVEL: 0

LLC TOTAL     ACCESS:       6743  HIT:       3744  MISS:       2999  HIT %:    55.5242  MISS %:    44.4758   MPKI: 0.014995
LLC LOAD      ACCESS:       3088  HIT:       2193  MISS:        895  HIT %:    71.0168  MISS %:    28.9832   MPKI: 0.004475
LLC RFO       ACCESS:       1427  HIT:         24  MISS:       1403  HIT %:    1.68185  MISS %:    98.3181   MPKI: 0.007015
LLC PREFETCH  ACCESS:       1434  HIT:        803  MISS:        631  HIT %:    55.9972  MISS %:    44.0028   MPKI: 0.003155
LLC WRITEBACK ACCESS:        698  HIT:        683  MISS:         15  HIT %:     97.851  MISS %:      2.149   MPKI: 7.5e-05
LLC LOAD TRANSLATION ACCESS:         62  HIT:         17  MISS:         45  HIT %:    27.4194  MISS %:    72.5806   MPKI: 0.000225
LLC TRANSLATION FROM L1D PREFETCHER ACCESS:         34  HIT:         24  MISS:         10  HIT %:    70.5882  MISS %:    29.4118   MPKI: 5e-05
LLC PREFETCH  REQUESTED:          0  ISSUED:          0  USEFUL:         24  USELESS:         19
LLC USEFUL LOAD PREFETCHES:         24 PREFETCH ISSUED TO LOWER LEVEL:        631  ACCURACY: 3.80349
LLC TIMELY PREFETCHES:         24 LATE PREFETCHES: 0 DROPPED PREFETCHES: 0
LLC PREFETCHES SAME FILL-ORIGIN LEVEL: 0 DIFFERENT FILL-ORIGIN LEVEL: 0
LLC AVERAGE MISS LATENCY: 118.522 cycles
LLC RQ	ACCESS:       4611	FORWARD:          0	MERGED:          0	TO_CACHE:       4611
LLC WQ	ACCESS:        698	FORWARD:          0	MERGED:          0	TO_CACHE:        698
LLC PQ	ACCESS:       1434	FORWARD:          0	MERGED:          0	TO_CACHE:       1434

LLC Dense regions hint to LLC: 0

RAW hits: 1851449
Loads Generated: 54543592
Loads sent to L1D: 52692142
Stores Generated: 23647433
Stores sent to L1D: 23647431
Major fault: 0 Minor fault: 592
Allocated PAGES: 592

DRAM Statistics
 CHANNEL 0
 RQ ROW_BUFFER_HIT:       1578  ROW_BUFFER_MISS:       1406
 DBUS_CONGESTED:          0
 WQ ROW_BUFFER_HIT:          0  ROW_BUFFER_MISS:          0  FULL:          0

 AVG_CONGESTED_CYCLE: -
 All warmup complete: 2
Channel 0 Bank busy for read cycles: 0
Channel 0 Bank busy for write cycles: 0
Channel 0
Rank 0
0banks busy for read cycles: 536151960
0banks busy for write cycles: 0
1banks busy for read cycles: 223992
1banks busy for write cycles: 0
2banks busy for read cycles: 9203
2banks busy for write cycles: 0
3banks busy for read cycles: 3805
3banks busy for write cycles: 0
4banks busy for read cycles: 3071
4banks busy for write cycles: 0
5banks busy for read cycles: 1062
5banks busy for write cycles: 0
6banks busy for read cycles: 962
6banks busy for write cycles: 0
7banks busy for read cycles: 712
7banks busy for write cycles: 0
8banks busy for read cycles: 955
8banks busy for write cycles: 0

CPU 0 Branch Prediction Accuracy: 89.8039% MPKI: 10.2009 Average ROB Occupancy at Mispredict: 23.905
Branch types
NOT_BRANCH: 167083029 83.5415%
BRANCH_DIRECT_JUMP: 1066547 0.533273%
BRANCH_INDIRECT: 1307 0.0006535%
BRANCH_CONDITIONAL: 20009273 10.0046%
BRANCH_DIRECT_CALL: 5919759 2.95988%
BRANCH_INDIRECT_CALL: 0 0%
BRANCH_RETURN: 5919760 2.95988%
BRANCH_OTHER: 0 0%

DRAM PAGES: 1048576
Allocated PAGES: 592
