
*** ChampSim Multicore Out-of-Order Simulator ***

Warmup Instructions: 50000000
Simulation Instructions: 200000000
Number of CPUs: 1
LLC sets: 2048
LLC ways: 16
Off-chip DRAM Size: 4096 MB Channels: 1 Width: 64-bit Data Rate: 6400 MT/s
argv[0]: ./ChampSim/Berti/bin/multiperspective_perceptron8kb_onebranch-no-vberti-no-no-no-no-no-lru-lru-lru-srrip-drrip-lru-lru-lru-1core-no
argv[1]: -warmup_instructions
argv[2]: 50000000
argv[3]: -simulation_instructions
argv[4]: 200000000
argv[5]: -traces
argv[6]: traces/spec2k17_ten/620.omnetpp_s-141B.champsimtrace.xz
CPU 0 runs traces/spec2k17_ten/620.omnetpp_s-141B.champsimtrace.xz
.xz
CPU 0 Multiperspective perceptron branch predictor
BTB has LRU replacement policy
ITLB has LRU replacement policy
DTLB has LRU replacement policy
STLB has LRU replacement policy
L1I has LRU replacement policy
History Sets: 8
History Ways: 16
BERTI Size: 16
BERTI Stride Size: 16
L1D has LRU replacement policy
Initialize SRRIP state for L2C
Initialize DRRIP state for LLC
Heartbeat CPU 0 instructions: 10000001 cycles: 3913536 heartbeat IPC: 2.55523 cumulative IPC: 2.55523 (Simulation time: 0 hr 0 min 34 sec) 
Heartbeat CPU 0 instructions: 20000003 cycles: 7840238 heartbeat IPC: 2.54667 cumulative IPC: 2.55094 (Simulation time: 0 hr 1 min 7 sec) 
Heartbeat CPU 0 instructions: 30000000 cycles: 11771240 heartbeat IPC: 2.54388 cumulative IPC: 2.54858 (Simulation time: 0 hr 1 min 41 sec) 
Heartbeat CPU 0 instructions: 40000001 cycles: 15690974 heartbeat IPC: 2.55119 cumulative IPC: 2.54924 (Simulation time: 0 hr 2 min 15 sec) 
Heartbeat CPU 0 instructions: 50000003 cycles: 19624219 heartbeat IPC: 2.54243 cumulative IPC: 2.54787 (Simulation time: 0 hr 2 min 48 sec) 

Warmup complete CPU 0 instructions: 50000003 cycles: 19624219 (Simulation time: 0 hr 2 min 48 sec) 

Heartbeat CPU 0 instructions: 60000001 cycles: 91890270 heartbeat IPC: 0.138378 cumulative IPC: 0.138378 (Simulation time: 0 hr 3 min 50 sec) 
Heartbeat CPU 0 instructions: 70000000 cycles: 165108017 heartbeat IPC: 0.136579 cumulative IPC: 0.137472 (Simulation time: 0 hr 4 min 53 sec) 
Heartbeat CPU 0 instructions: 80000000 cycles: 237746134 heartbeat IPC: 0.137669 cumulative IPC: 0.137538 (Simulation time: 0 hr 5 min 56 sec) 
Heartbeat CPU 0 instructions: 90000003 cycles: 310747677 heartbeat IPC: 0.136983 cumulative IPC: 0.137399 (Simulation time: 0 hr 6 min 59 sec) 
Heartbeat CPU 0 instructions: 100000000 cycles: 383311366 heartbeat IPC: 0.13781 cumulative IPC: 0.137481 (Simulation time: 0 hr 8 min 2 sec) 
Heartbeat CPU 0 instructions: 110000000 cycles: 456023878 heartbeat IPC: 0.137528 cumulative IPC: 0.137489 (Simulation time: 0 hr 9 min 5 sec) 
Heartbeat CPU 0 instructions: 120000000 cycles: 528554638 heartbeat IPC: 0.137873 cumulative IPC: 0.137543 (Simulation time: 0 hr 10 min 8 sec) 
Heartbeat CPU 0 instructions: 130000000 cycles: 601607388 heartbeat IPC: 0.136887 cumulative IPC: 0.137461 (Simulation time: 0 hr 11 min 11 sec) 
Heartbeat CPU 0 instructions: 140000000 cycles: 674823958 heartbeat IPC: 0.136581 cumulative IPC: 0.137363 (Simulation time: 0 hr 12 min 13 sec) 
Heartbeat CPU 0 instructions: 150000000 cycles: 748561398 heartbeat IPC: 0.135616 cumulative IPC: 0.137186 (Simulation time: 0 hr 13 min 16 sec) 
Heartbeat CPU 0 instructions: 160000001 cycles: 821676038 heartbeat IPC: 0.136772 cumulative IPC: 0.137148 (Simulation time: 0 hr 14 min 18 sec) 
Heartbeat CPU 0 instructions: 170000000 cycles: 894262127 heartbeat IPC: 0.137767 cumulative IPC: 0.1372 (Simulation time: 0 hr 15 min 21 sec) 
Heartbeat CPU 0 instructions: 180000000 cycles: 966854242 heartbeat IPC: 0.137756 cumulative IPC: 0.137242 (Simulation time: 0 hr 16 min 25 sec) 
Heartbeat CPU 0 instructions: 190000000 cycles: 1039471413 heartbeat IPC: 0.137708 cumulative IPC: 0.137275 (Simulation time: 0 hr 17 min 28 sec) 
Heartbeat CPU 0 instructions: 200000000 cycles: 1113519891 heartbeat IPC: 0.135047 cumulative IPC: 0.137125 (Simulation time: 0 hr 18 min 31 sec) 
Heartbeat CPU 0 instructions: 210000000 cycles: 1186862281 heartbeat IPC: 0.136347 cumulative IPC: 0.137076 (Simulation time: 0 hr 19 min 34 sec) 
Heartbeat CPU 0 instructions: 220000000 cycles: 1260431920 heartbeat IPC: 0.135926 cumulative IPC: 0.137008 (Simulation time: 0 hr 20 min 37 sec) 
Heartbeat CPU 0 instructions: 230000000 cycles: 1333800924 heartbeat IPC: 0.136297 cumulative IPC: 0.136968 (Simulation time: 0 hr 21 min 40 sec) 
Heartbeat CPU 0 instructions: 240000001 cycles: 1407142695 heartbeat IPC: 0.136348 cumulative IPC: 0.136935 (Simulation time: 0 hr 22 min 42 sec) 
Heartbeat CPU 0 instructions: 250000001 cycles: 1479526917 heartbeat IPC: 0.138152 cumulative IPC: 0.136995 (Simulation time: 0 hr 23 min 44 sec) 
Finished CPU 0 instructions: 200000000 cycles: 1459902700 cumulative IPC: 0.136995 (Simulation time: 0 hr 23 min 44 sec) 

ChampSim completed all CPUs

Region of Interest Statistics

CPU 0 cumulative IPC: 0.136995 instructions: 200000000 cycles: 1459902700
ITLB TOTAL     ACCESS:   38615391  HIT:   38325253  MISS:     290138  HIT %:    99.2486  MISS %:   0.751353   MPKI: 1.45069
ITLB LOAD TRANSLATION ACCESS:   38615391  HIT:   38325253  MISS:     290138  HIT %:    99.2486  MISS %:   0.751353   MPKI: 1.45069
ITLB PREFETCH  REQUESTED:          0  ISSUED:          0  USEFUL:          0  USELESS:          0
ITLB USEFUL LOAD PREFETCHES:          0 PREFETCH ISSUED TO LOWER LEVEL:          0  ACCURACY: -nan
ITLB TIMELY PREFETCHES:          0 LATE PREFETCHES: 0 DROPPED PREFETCHES: 0
ITLB PREFETCHES SAME FILL-ORIGIN LEVEL: 0 DIFFERENT FILL-ORIGIN LEVEL: 0
ITLB AVERAGE MISS LATENCY: 9.64074 cycles
ITLB RQ	ACCESS:   44771375	FORWARD:          0	MERGED:    6110410	TO_CACHE:   38660965

DTLB TOTAL     ACCESS:   86219750  HIT:   82051849  MISS:    4167901  HIT %:     95.166  MISS %:    4.83404   MPKI: 20.8395
DTLB LOAD TRANSLATION ACCESS:   86219750  HIT:   82051849  MISS:    4167901  HIT %:     95.166  MISS %:    4.83404   MPKI: 20.8395
DTLB PREFETCH  REQUESTED:          0  ISSUED:          0  USEFUL:          0  USELESS:          0
DTLB USEFUL LOAD PREFETCHES:          0 PREFETCH ISSUED TO LOWER LEVEL:          0  ACCURACY: -nan
DTLB TIMELY PREFETCHES:          0 LATE PREFETCHES: 0 DROPPED PREFETCHES: 0
DTLB PREFETCHES SAME FILL-ORIGIN LEVEL: 0 DIFFERENT FILL-ORIGIN LEVEL: 0
DTLB AVERAGE MISS LATENCY: 23.6405 cycles
DTLB RQ	ACCESS:   95105283	FORWARD:          0	MERGED:    8845071	TO_CACHE:   86260212

STLB TOTAL     ACCESS:    4555180  HIT:    3574214  MISS:     980966  HIT %:    78.4648  MISS %:    21.5352   MPKI: 4.90483
STLB LOAD TRANSLATION ACCESS:    4458039  HIT:    3492401  MISS:     965638  HIT %:    78.3394  MISS %:    21.6606   MPKI: 4.82819
STLB TRANSLATION FROM L1D PREFETCHER ACCESS:      97141  HIT:      81813  MISS:      15328  HIT %:    84.2209  MISS %:    15.7791   MPKI: 0.07664
STLB PREFETCH  REQUESTED:          0  ISSUED:          0  USEFUL:      10507  USELESS:       4822
STLB USEFUL LOAD PREFETCHES:      10507 PREFETCH ISSUED TO LOWER LEVEL:          0  ACCURACY: inf
STLB TIMELY PREFETCHES:      10507 LATE PREFETCHES: 1 DROPPED PREFETCHES: 15024
STLB PREFETCHES SAME FILL-ORIGIN LEVEL: 0 DIFFERENT FILL-ORIGIN LEVEL: 0
STLB AVERAGE MISS LATENCY: 62.8228 cycles
STLB RQ	ACCESS:    4620110	FORWARD:          0	MERGED:      49847	TO_CACHE:    4570263

STLB Hit, L1D data hit: 0
STLB Hit, L2C data hit: 0
STLB Hit, LLC data hit: 0
STLB Hit, LLC data miss: 0
STLB STLB hints to L2: 0
L1D TOTAL     ACCESS:   94133052  HIT:   90425416  MISS:    3707636  HIT %:    96.0613  MISS %:    3.93872   MPKI: 18.5382
L1D LOAD      ACCESS:   57971270  HIT:   54755383  MISS:    3215887  HIT %:    94.4526  MISS %:    5.54738   MPKI: 16.0794
L1D RFO       ACCESS:   36127932  HIT:   35643030  MISS:     484902  HIT %:    98.6578  MISS %:    1.34218   MPKI: 2.42451
L1D PREFETCH  ACCESS:      33850  HIT:      27003  MISS:       6847  HIT %:    79.7725  MISS %:    20.2275   MPKI: 0.034235
L1D PREFETCH  REQUESTED:     324678  ISSUED:     324678  USEFUL:       3484  USELESS:       3363
L1D USEFUL LOAD PREFETCHES:       3484 PREFETCH ISSUED TO LOWER LEVEL:     118444  ACCURACY: 2.94147
L1D TIMELY PREFETCHES:       3484 LATE PREFETCHES: 1 DROPPED PREFETCHES: 16461
L1D PREFETCHES SAME FILL-ORIGIN LEVEL: 6848 DIFFERENT FILL-ORIGIN LEVEL: 111596
L1D AVERAGE MISS LATENCY: 129.947 cycles
L1D RQ	ACCESS:   65866250	FORWARD:          0	MERGED:    6090417	TO_CACHE:   58141892
L1D WQ	ACCESS:   37145107	FORWARD:    1633941	MERGED:     181716	TO_CACHE:   36963391
L1D PQ	ACCESS:     162607	FORWARD:          0	MERGED:        536	TO_CACHE:     162071

L1D UNIQUE REGIONS ACCESSED: 0
L1D REGIONS CONFLICTS: 0
L1D Cross Page Prefetch Requests: 92278
L1D Same Page Prefetch Requests: 113624
L1D ROI Sum of L1D PQ occupancy: 3472247
L1D PREFETCHES PUSHED FROM L2C: 0
L1I TOTAL     ACCESS:   44737101  HIT:   44616163  MISS:     120938  HIT %:    99.7297  MISS %:    0.27033   MPKI: 0.60469
L1I LOAD      ACCESS:   44737101  HIT:   44616163  MISS:     120938  HIT %:    99.7297  MISS %:    0.27033   MPKI: 0.60469
L1I PREFETCH  REQUESTED:          0  ISSUED:          0  USEFUL:          0  USELESS:          0
L1I USEFUL LOAD PREFETCHES:          0 PREFETCH ISSUED TO LOWER LEVEL:          0  ACCURACY: -nan
L1I TIMELY PREFETCHES:          0 LATE PREFETCHES: 0 DROPPED PREFETCHES: 0
L1I PREFETCHES SAME FILL-ORIGIN LEVEL: 0 DIFFERENT FILL-ORIGIN LEVEL: 0
L1I AVERAGE MISS LATENCY: 24.6289 cycles
L1I RQ	ACCESS:   60148576	FORWARD:          0	MERGED:   15377201	TO_CACHE:   44771375

BTB TOTAL     ACCESS:   32873208  HIT:   30947945  MISS:    1925263  HIT %:    94.1434  MISS %:    5.85663   MPKI: 9.62631
BTB BRANCH_DIRECT_JUMP	ACCESS:    2330258  HIT:    2330114  MISS:        144
BTB BRANCH_INDIRECT	ACCESS:     674227  HIT:     571148  MISS:     103079
BTB BRANCH_CONDITIONAL	ACCESS:   17721646  HIT:   17721117  MISS:        529
BTB BRANCH_DIRECT_CALL	ACCESS:    3701834  HIT:    3701542  MISS:        292
BTB BRANCH_INDIRECT_CALL	ACCESS:    2371706  HIT:    2363088  MISS:       8618
BTB BRANCH_RETURN	ACCESS:    6073537  HIT:    4260936  MISS:    1812601
BTB BRANCH_OTHER ACCESS:          0  HIT:          0  MISS:          0

L2C TOTAL     ACCESS:    7186907  HIT:    3739372  MISS:    3447535  HIT %:    52.0303  MISS %:    47.9697   MPKI: 17.2377
L2C LOAD      ACCESS:    3336811  HIT:     983461  MISS:    2353350  HIT %:    29.4731  MISS %:    70.5269   MPKI: 11.7668
L2C DATA LOAD MPKI: 11.6741
L2C INSTRUCTION LOAD MPKI: 0.09262
L2C RFO       ACCESS:     484902  HIT:     124404  MISS:     360498  HIT %:    25.6555  MISS %:    74.3445   MPKI: 1.80249
L2C PREFETCH  ACCESS:     117352  HIT:      24872  MISS:      92480  HIT %:    21.1944  MISS %:    78.8056   MPKI: 0.4624
L2C DATA PREFETCH MPKI: 0.4624
L2C INSTRUCTION PREFETCH MPKI: 0
L2C WRITEBACK ACCESS:    1816609  HIT:    1780037  MISS:      36572  HIT %:    97.9868  MISS %:     2.0132   MPKI: 0.18286
L2C LOAD TRANSLATION ACCESS:    1385834  HIT:     783817  MISS:     602017  HIT %:    56.5592  MISS %:    43.4408   MPKI: 3.01009
L2C TRANSLATION FROM L1D PREFETCHER ACCESS:      45399  HIT:      42781  MISS:       2618  HIT %:    94.2334  MISS %:    5.76665   MPKI: 0.01309
L2C PREFETCH  REQUESTED:          0  ISSUED:          0  USEFUL:      27330  USELESS:      67810
L2C USEFUL LOAD PREFETCHES:      27330 PREFETCH ISSUED TO LOWER LEVEL:      92854  ACCURACY: 29.4333
L2C TIMELY PREFETCHES:      27330 LATE PREFETCHES: 374 DROPPED PREFETCHES: 0
L2C PREFETCHES SAME FILL-ORIGIN LEVEL: 89303 DIFFERENT FILL-ORIGIN LEVEL: 0
L2C AVERAGE MISS LATENCY: 139.205 cycles
L2C RQ	ACCESS:    5252958	FORWARD:          0	MERGED:          0	TO_CACHE:    5252946
L2C WQ	ACCESS:    1816609	FORWARD:         12	MERGED:          0	TO_CACHE:    1816609
L2C PQ	ACCESS:     118444	FORWARD:          0	MERGED:          0	TO_CACHE:     118444

L2C Instructions Evicting Data 15075
L2C Translations Evicting Data 492275
L2C Data Evicting Data 2285796
L2C Instructions Evicting Instructions 358
L2C Translations Evicting Instructions 3105
L2C Data Evicting Instructions 14790
L2C Instructions Evicting Translations 3091
L2C Translations Evicting Translations 109255
L2C Data Evicting Translations 487218
L2C Dense regions hint from L2: 0
PSCL5 TOTAL     ACCESS:     995990  HIT:     995990  MISS:          0  HIT %:        100  MISS %:          0   MPKI: 0
PSCL5 LOAD TRANSLATION ACCESS:     965637  HIT:     965637  MISS:          0  HIT %:        100  MISS %:          0   MPKI: 0
PSCL5 TRANSLATION FROM L1D PREFETCHER ACCESS:      30353  HIT:      30353  MISS:          0  HIT %:        100  MISS %:          0   MPKI: 0
PSCL5 PREFETCH  REQUESTED:          0  ISSUED:          0  USEFUL:          0  USELESS:          0
PSCL5 USEFUL LOAD PREFETCHES:          0 PREFETCH ISSUED TO LOWER LEVEL:          0  ACCURACY: -nan
PSCL5 TIMELY PREFETCHES:          0 LATE PREFETCHES: 0 DROPPED PREFETCHES: 0
PSCL5 PREFETCHES SAME FILL-ORIGIN LEVEL: 0 DIFFERENT FILL-ORIGIN LEVEL: 0

PSCL4 TOTAL     ACCESS:     995990  HIT:     995990  MISS:          0  HIT %:        100  MISS %:          0   MPKI: 0
PSCL4 LOAD TRANSLATION ACCESS:     965637  HIT:     965637  MISS:          0  HIT %:        100  MISS %:          0   MPKI: 0
PSCL4 TRANSLATION FROM L1D PREFETCHER ACCESS:      30353  HIT:      30353  MISS:          0  HIT %:        100  MISS %:          0   MPKI: 0
PSCL4 PREFETCH  REQUESTED:          0  ISSUED:          0  USEFUL:          0  USELESS:          0
PSCL4 USEFUL LOAD PREFETCHES:          0 PREFETCH ISSUED TO LOWER LEVEL:          0  ACCURACY: -nan
PSCL4 TIMELY PREFETCHES:          0 LATE PREFETCHES: 0 DROPPED PREFETCHES: 0
PSCL4 PREFETCHES SAME FILL-ORIGIN LEVEL: 0 DIFFERENT FILL-ORIGIN LEVEL: 0

PSCL3 TOTAL     ACCESS:     995990  HIT:     995990  MISS:          0  HIT %:        100  MISS %:          0   MPKI: 0
PSCL3 LOAD TRANSLATION ACCESS:     965637  HIT:     965637  MISS:          0  HIT %:        100  MISS %:          0   MPKI: 0
PSCL3 TRANSLATION FROM L1D PREFETCHER ACCESS:      30353  HIT:      30353  MISS:          0  HIT %:        100  MISS %:          0   MPKI: 0
PSCL3 PREFETCH  REQUESTED:          0  ISSUED:          0  USEFUL:          0  USELESS:          0
PSCL3 USEFUL LOAD PREFETCHES:          0 PREFETCH ISSUED TO LOWER LEVEL:          0  ACCURACY: -nan
PSCL3 TIMELY PREFETCHES:          0 LATE PREFETCHES: 0 DROPPED PREFETCHES: 0
PSCL3 PREFETCHES SAME FILL-ORIGIN LEVEL: 0 DIFFERENT FILL-ORIGIN LEVEL: 0

PSCL2 TOTAL     ACCESS:     982096  HIT:     560660  MISS:     421436  HIT %:    57.0881  MISS %:    42.9119   MPKI: 2.10718
PSCL2 LOAD TRANSLATION ACCESS:     966876  HIT:     545440  MISS:     421436  HIT %:    56.4126  MISS %:    43.5874   MPKI: 2.10718
PSCL2 TRANSLATION FROM L1D PREFETCHER ACCESS:      15220  HIT:      15220  MISS:          0  HIT %:        100  MISS %:          0   MPKI: 0
PSCL2 PREFETCH  REQUESTED:          0  ISSUED:          0  USEFUL:          0  USELESS:          0
PSCL2 USEFUL LOAD PREFETCHES:          0 PREFETCH ISSUED TO LOWER LEVEL:          0  ACCURACY: -nan
PSCL2 TIMELY PREFETCHES:          0 LATE PREFETCHES: 0 DROPPED PREFETCHES: 0
PSCL2 PREFETCHES SAME FILL-ORIGIN LEVEL: 0 DIFFERENT FILL-ORIGIN LEVEL: 0

LLC TOTAL     ACCESS:    4696575  HIT:    2353415  MISS:    2343160  HIT %:    50.1092  MISS %:    49.8908   MPKI: 11.7158
LLC LOAD      ACCESS:    2352976  HIT:     512023  MISS:    1840953  HIT %:    21.7607  MISS %:    78.2393   MPKI: 9.20477
LLC RFO       ACCESS:     360498  HIT:     106890  MISS:     253608  HIT %:    29.6506  MISS %:    70.3494   MPKI: 1.26804
LLC PREFETCH  ACCESS:      92854  HIT:       3212  MISS:      89642  HIT %:    3.45919  MISS %:    96.5408   MPKI: 0.44821
LLC WRITEBACK ACCESS:    1285612  HIT:    1231726  MISS:      53886  HIT %:    95.8085  MISS %:    4.19147   MPKI: 0.26943
LLC LOAD TRANSLATION ACCESS:     602017  HIT:     497878  MISS:     104139  HIT %:    82.7017  MISS %:    17.2983   MPKI: 0.520695
LLC TRANSLATION FROM L1D PREFETCHER ACCESS:       2618  HIT:       1686  MISS:        932  HIT %:    64.4003  MISS %:    35.5997   MPKI: 0.00466
LLC PREFETCH  REQUESTED:          0  ISSUED:          0  USEFUL:       1844  USELESS:      88777
LLC USEFUL LOAD PREFETCHES:       1844 PREFETCH ISSUED TO LOWER LEVEL:      89642  ACCURACY: 2.05707
LLC TIMELY PREFETCHES:       1844 LATE PREFETCHES: 0 DROPPED PREFETCHES: 0
LLC PREFETCHES SAME FILL-ORIGIN LEVEL: 0 DIFFERENT FILL-ORIGIN LEVEL: 0
LLC AVERAGE MISS LATENCY: 161.152 cycles
LLC RQ	ACCESS:    3318109	FORWARD:          0	MERGED:          0	TO_CACHE:    3318109
LLC WQ	ACCESS:    1285612	FORWARD:          0	MERGED:          0	TO_CACHE:    1285612
LLC PQ	ACCESS:      92854	FORWARD:          0	MERGED:          0	TO_CACHE:      92854

LLC Dense regions hint to LLC: 0

RAW hits: 1006284
Loads Generated: 66872535
Loads sent to L1D: 65866250
Stores Generated: 37145093
Stores sent to L1D: 37145107
Major fault: 0 Minor fault: 53031
Allocated PAGES: 53031

DRAM Statistics
 CHANNEL 0
 RQ ROW_BUFFER_HIT:     153309  ROW_BUFFER_MISS:    2135963
 DBUS_CONGESTED:        184
 WQ ROW_BUFFER_HIT:     215933  ROW_BUFFER_MISS:     779792  FULL:          0

 AVG_CONGESTED_CYCLE: 5
 All warmup complete: 2
Channel 0 Bank busy for read cycles: 0
Channel 0 Bank busy for write cycles: 0
Channel 0
Rank 0
0banks busy for read cycles: 1040267943
0banks busy for write cycles: 694331
1banks busy for read cycles: 233637831
1banks busy for write cycles: 111984735
2banks busy for read cycles: 36967060
2banks busy for write cycles: 25040526
3banks busy for read cycles: 4783534
3banks busy for write cycles: 4266750
4banks busy for read cycles: 988906
4banks busy for write cycles: 713632
5banks busy for read cycles: 331514
5banks busy for write cycles: 116063
6banks busy for read cycles: 75610
6banks busy for write cycles: 20605
7banks busy for read cycles: 9151
7banks busy for write cycles: 3159
8banks busy for read cycles: 932
8banks busy for write cycles: 419

CPU 0 Branch Prediction Accuracy: 47.4727% MPKI: 70.4845 Average ROB Occupancy at Mispredict: 4.61018
Branch types
NOT_BRANCH: 158010803 79.0054%
BRANCH_DIRECT_JUMP: 2330258 1.16513%
BRANCH_INDIRECT: 674227 0.337114%
BRANCH_CONDITIONAL: 26837257 13.4186%
BRANCH_DIRECT_CALL: 3701834 1.85092%
BRANCH_INDIRECT_CALL: 2371706 1.18585%
BRANCH_RETURN: 6073537 3.03677%
BRANCH_OTHER: 0 0%

DRAM PAGES: 1048576
Allocated PAGES: 53031
