 (TOTAL 67349)
 
*** ChampSim Multicore Out-of-Order Simulator ***

Warmup Instructions: 50000000
Simulation Instructions: 200000000
Number of CPUs: 1
LLC sets: 2048
LLC ways: 16
Off-chip DRAM Size: 4096 MB Channels: 1 Width: 64-bit Data Rate: 6400 MT/s
argv[0]: ./ChampSim/Berti/bin/tagescl8kb-no-vberti-no-no-no-no-no-lru-lru-lru-srrip-drrip-lru-lru-lru-1core-no
argv[1]: -warmup_instructions
argv[2]: 50000000
argv[3]: -simulation_instructions
argv[4]: 200000000
argv[5]: -traces
argv[6]: traces/spec2k17_ten/638.imagick_s-10316B.champsimtrace.xz
CPU 0 runs traces/spec2k17_ten/638.imagick_s-10316B.champsimtrace.xz
.xz
CPU 0 Tage branch predictor
BTB has LRU replacement policy
ITLB has LRU replacement policy
DTLB has LRU replacement policy
STLB has LRU replacement policy
L1I has LRU replacement policy
History Sets: 8
History Ways: 16
BERTI Size: 16
BERTI Stride Size: 16
L1D has LRU replacement policy
Initialize SRRIP state for L2C
Initialize DRRIP state for LLC
Heartbeat CPU 0 instructions: 10000001 cycles: 2566507 heartbeat IPC: 3.89635 cumulative IPC: 3.89635 (Simulation time: 0 hr 2 min 41 sec) 
Heartbeat CPU 0 instructions: 20000002 cycles: 5132677 heartbeat IPC: 3.89686 cumulative IPC: 3.8966 (Simulation time: 0 hr 8 min 52 sec) 
Heartbeat CPU 0 instructions: 30000000 cycles: 7698867 heartbeat IPC: 3.89683 cumulative IPC: 3.89668 (Simulation time: 0 hr 12 min 59 sec) 
Heartbeat CPU 0 instructions: 40000001 cycles: 10265101 heartbeat IPC: 3.89676 cumulative IPC: 3.8967 (Simulation time: 0 hr 15 min 54 sec) 
Heartbeat CPU 0 instructions: 50000002 cycles: 12831355 heartbeat IPC: 3.89673 cumulative IPC: 3.8967 (Simulation time: 0 hr 18 min 55 sec) 

Warmup complete CPU 0 instructions: 50000002 cycles: 12831355 (Simulation time: 0 hr 18 min 55 sec) 

Heartbeat CPU 0 instructions: 60000000 cycles: 22121473 heartbeat IPC: 1.07641 cumulative IPC: 1.07641 (Simulation time: 0 hr 23 min 16 sec) 
Heartbeat CPU 0 instructions: 70000000 cycles: 31411454 heartbeat IPC: 1.07643 cumulative IPC: 1.07642 (Simulation time: 0 hr 26 min 34 sec) 
Heartbeat CPU 0 instructions: 80000000 cycles: 40702000 heartbeat IPC: 1.07636 cumulative IPC: 1.0764 (Simulation time: 0 hr 30 min 26 sec) 
Heartbeat CPU 0 instructions: 90000000 cycles: 49992222 heartbeat IPC: 1.0764 cumulative IPC: 1.0764 (Simulation time: 0 hr 35 min 41 sec) 
Heartbeat CPU 0 instructions: 100000002 cycles: 59282420 heartbeat IPC: 1.0764 cumulative IPC: 1.0764 (Simulation time: 0 hr 40 min 42 sec) 
Heartbeat CPU 0 instructions: 110000000 cycles: 68572418 heartbeat IPC: 1.07643 cumulative IPC: 1.07641 (Simulation time: 0 hr 43 min 47 sec) 
Heartbeat CPU 0 instructions: 120000000 cycles: 77862717 heartbeat IPC: 1.07639 cumulative IPC: 1.0764 (Simulation time: 0 hr 47 min 35 sec) 
Heartbeat CPU 0 instructions: 130000000 cycles: 87153180 heartbeat IPC: 1.07637 cumulative IPC: 1.0764 (Simulation time: 0 hr 50 min 55 sec) 
Heartbeat CPU 0 instructions: 140000000 cycles: 96443586 heartbeat IPC: 1.07638 cumulative IPC: 1.0764 (Simulation time: 0 hr 54 min 51 sec) 
Heartbeat CPU 0 instructions: 150000001 cycles: 105733917 heartbeat IPC: 1.07639 cumulative IPC: 1.0764 (Simulation time: 0 hr 59 min 50 sec) 
Heartbeat CPU 0 instructions: 160000000 cycles: 115024395 heartbeat IPC: 1.07637 cumulative IPC: 1.07639 (Simulation time: 1 hr 4 min 28 sec) 
Heartbeat CPU 0 instructions: 170000000 cycles: 124315044 heartbeat IPC: 1.07635 cumulative IPC: 1.07639 (Simulation time: 1 hr 7 min 43 sec) 
Heartbeat CPU 0 instructions: 180000001 cycles: 133604958 heartbeat IPC: 1.07644 cumulative IPC: 1.07639 (Simulation time: 1 hr 12 min 23 sec) 
Heartbeat CPU 0 instructions: 190000003 cycles: 142894976 heartbeat IPC: 1.07642 cumulative IPC: 1.0764 (Simulation time: 1 hr 15 min 47 sec) 
Heartbeat CPU 0 instructions: 200000000 cycles: 152184793 heartbeat IPC: 1.07645 cumulative IPC: 1.0764 (Simulation time: 1 hr 20 min 8 sec) 
Heartbeat CPU 0 instructions: 210000000 cycles: 161475223 heartbeat IPC: 1.07638 cumulative IPC: 1.0764 (Simulation time: 1 hr 23 min 36 sec) 
Heartbeat CPU 0 instructions: 220000000 cycles: 170765389 heartbeat IPC: 1.07641 cumulative IPC: 1.0764 (Simulation time: 1 hr 27 min 1 sec) 
Heartbeat CPU 0 instructions: 230000003 cycles: 180055782 heartbeat IPC: 1.07638 cumulative IPC: 1.0764 (Simulation time: 1 hr 30 min 8 sec) 
Heartbeat CPU 0 instructions: 240000002 cycles: 189345801 heartbeat IPC: 1.07642 cumulative IPC: 1.0764 (Simulation time: 1 hr 33 min 17 sec) 
Heartbeat CPU 0 instructions: 250000000 cycles: 198636869 heartbeat IPC: 1.0763 cumulative IPC: 1.07639 (Simulation time: 1 hr 35 min 37 sec) 
Finished CPU 0 instructions: 200000000 cycles: 185805524 cumulative IPC: 1.07639 (Simulation time: 1 hr 35 min 37 sec) 

ChampSim completed all CPUs

Region of Interest Statistics

CPU 0 cumulative IPC: 1.07639 instructions: 200000000 cycles: 185805524
ITLB TOTAL     ACCESS:   27571323  HIT:   27571323  MISS:          0  HIT %:        100  MISS %:          0   MPKI: 0
ITLB LOAD TRANSLATION ACCESS:   27571323  HIT:   27571323  MISS:          0  HIT %:        100  MISS %:          0   MPKI: 0
ITLB PREFETCH  REQUESTED:          0  ISSUED:          0  USEFUL:          0  USELESS:          0
ITLB USEFUL LOAD PREFETCHES:          0 PREFETCH ISSUED TO LOWER LEVEL:          0  ACCURACY: -nan
ITLB TIMELY PREFETCHES:          0 LATE PREFETCHES: 0 DROPPED PREFETCHES: 0
ITLB PREFETCHES SAME FILL-ORIGIN LEVEL: 0 DIFFERENT FILL-ORIGIN LEVEL: 0
ITLB AVERAGE MISS LATENCY: -nan cycles
ITLB RQ	ACCESS:   34385840	FORWARD:          0	MERGED:    6814518	TO_CACHE:   27571322

DTLB TOTAL     ACCESS:   20047498  HIT:   19954543  MISS:      92955  HIT %:    99.5363  MISS %:   0.463674   MPKI: 0.464775
DTLB LOAD TRANSLATION ACCESS:   20047498  HIT:   19954543  MISS:      92955  HIT %:    99.5363  MISS %:   0.463674   MPKI: 0.464775
DTLB PREFETCH  REQUESTED:          0  ISSUED:          0  USEFUL:          0  USELESS:          0
DTLB USEFUL LOAD PREFETCHES:          0 PREFETCH ISSUED TO LOWER LEVEL:          0  ACCURACY: -nan
DTLB TIMELY PREFETCHES:          0 LATE PREFETCHES: 0 DROPPED PREFETCHES: 0
DTLB PREFETCHES SAME FILL-ORIGIN LEVEL: 0 DIFFERENT FILL-ORIGIN LEVEL: 0
DTLB AVERAGE MISS LATENCY: 9.04768 cycles
DTLB RQ	ACCESS:   20117413	FORWARD:          0	MERGED:      69128	TO_CACHE:   20048285

STLB TOTAL     ACCESS:   21140688  HIT:   21140566  MISS:        122  HIT %:    99.9994  MISS %: 0.000577086   MPKI: 0.00061
STLB LOAD TRANSLATION ACCESS:      92955  HIT:      92833  MISS:        122  HIT %:    99.8688  MISS %:   0.131246   MPKI: 0.00061
STLB TRANSLATION FROM L1D PREFETCHER ACCESS:   21047733  HIT:   21047733  MISS:          0  HIT %:        100  MISS %:          0   MPKI: 0
STLB PREFETCH  REQUESTED:          0  ISSUED:          0  USEFUL:          0  USELESS:          0
STLB USEFUL LOAD PREFETCHES:          0 PREFETCH ISSUED TO LOWER LEVEL:          0  ACCURACY: -nan
STLB TIMELY PREFETCHES:          0 LATE PREFETCHES: 45 DROPPED PREFETCHES: 196512
STLB PREFETCHES SAME FILL-ORIGIN LEVEL: 0 DIFFERENT FILL-ORIGIN LEVEL: 0
STLB AVERAGE MISS LATENCY: 115.025 cycles
STLB RQ	ACCESS:  103441071	FORWARD:          0	MERGED:   82103381	TO_CACHE:   21337690

STLB Hit, L1D data hit: 0
STLB Hit, L2C data hit: 0
STLB Hit, LLC data hit: 0
STLB Hit, LLC data miss: 0
STLB STLB hints to L2: 0
L1D TOTAL     ACCESS:  110829054  HIT:  108766973  MISS:    2062081  HIT %:    98.1394  MISS %:     1.8606   MPKI: 10.3104
L1D LOAD      ACCESS:   20100092  HIT:   20029258  MISS:      70834  HIT %:    99.6476  MISS %:   0.352406   MPKI: 0.35417
L1D RFO       ACCESS:       9370  HIT:       8184  MISS:       1186  HIT %:    87.3426  MISS %:    12.6574   MPKI: 0.00593
L1D PREFETCH  ACCESS:   90719592  HIT:   88729531  MISS:    1990061  HIT %:    97.8064  MISS %:    2.19364   MPKI: 9.95031
L1D PREFETCH  REQUESTED:  223942199  ISSUED:  207054772  USEFUL:    1708016  USELESS:     282043
L1D USEFUL LOAD PREFETCHES:    1708016 PREFETCH ISSUED TO LOWER LEVEL:   14207398  ACCURACY: 12.022
L1D TIMELY PREFETCHES:    1708016 LATE PREFETCHES: 4569 DROPPED PREFETCHES: 409067
L1D PREFETCHES SAME FILL-ORIGIN LEVEL: 1994630 DIFFERENT FILL-ORIGIN LEVEL: 12212768
L1D AVERAGE MISS LATENCY: 15.1691 cycles
L1D RQ	ACCESS:   34513898	FORWARD:          0	MERGED:   14405968	TO_CACHE:   20107871
L1D WQ	ACCESS:      10044	FORWARD:         59	MERGED:        502	TO_CACHE:       9542
L1D PQ	ACCESS:  103706656	FORWARD:          0	MERGED:     358540	TO_CACHE:  103348116

L1D UNIQUE REGIONS ACCESSED: 0
L1D REGIONS CONFLICTS: 0
L1D Cross Page Prefetch Requests: 17675270
L1D Same Page Prefetch Requests: 108772078
L1D ROI Sum of L1D PQ occupancy: 1747457161
L1D PREFETCHES PUSHED FROM L2C: 0
L1I TOTAL     ACCESS:   34385841  HIT:   34385841  MISS:          0  HIT %:        100  MISS %:          0   MPKI: 0
L1I LOAD      ACCESS:   34385841  HIT:   34385841  MISS:          0  HIT %:        100  MISS %:          0   MPKI: 0
L1I PREFETCH  REQUESTED:          0  ISSUED:          0  USEFUL:          0  USELESS:          0
L1I USEFUL LOAD PREFETCHES:          0 PREFETCH ISSUED TO LOWER LEVEL:          0  ACCURACY: -nan
L1I TIMELY PREFETCHES:          0 LATE PREFETCHES: 0 DROPPED PREFETCHES: 0
L1I PREFETCHES SAME FILL-ORIGIN LEVEL: 0 DIFFERENT FILL-ORIGIN LEVEL: 0
L1I AVERAGE MISS LATENCY: -nan cycles
L1I RQ	ACCESS:   55023458	FORWARD:          0	MERGED:   20637618	TO_CACHE:   34385840

BTB TOTAL     ACCESS:   13821456  HIT:   13821432  MISS:         24  HIT %:    99.9998  MISS %: 0.000173643   MPKI: 0.00012
BTB BRANCH_DIRECT_JUMP	ACCESS:       1117  HIT:       1114  MISS:          3
BTB BRANCH_INDIRECT	ACCESS:          0  HIT:          0  MISS:          0
BTB BRANCH_CONDITIONAL	ACCESS:   13820339  HIT:   13820318  MISS:         21
BTB BRANCH_DIRECT_CALL	ACCESS:          0  HIT:          0  MISS:          0
BTB BRANCH_INDIRECT_CALL	ACCESS:          0  HIT:          0  MISS:          0
BTB BRANCH_RETURN	ACCESS:          0  HIT:          0  MISS:          0
BTB BRANCH_OTHER ACCESS:          0  HIT:          0  MISS:          0

L2C TOTAL     ACCESS:   14472298  HIT:   14462665  MISS:       9633  HIT %:    99.9334  MISS %:  0.0665616   MPKI: 0.048165
L2C LOAD      ACCESS:      66265  HIT:      66185  MISS:         80  HIT %:    99.8793  MISS %:   0.120727   MPKI: 0.0004
L2C DATA LOAD MPKI: 0.0004
L2C INSTRUCTION LOAD MPKI: 0
L2C RFO       ACCESS:       1186  HIT:       1116  MISS:         70  HIT %:    94.0978  MISS %:    5.90219   MPKI: 0.00035
L2C PREFETCH  ACCESS:   14205308  HIT:   14195926  MISS:       9382  HIT %:     99.934  MISS %:  0.0660457   MPKI: 0.04691
L2C DATA PREFETCH MPKI: 0.04691
L2C INSTRUCTION PREFETCH MPKI: 0
L2C WRITEBACK ACCESS:       2860  HIT:       2860  MISS:          0  HIT %:        100  MISS %:          0   MPKI: 0
L2C LOAD TRANSLATION ACCESS:        122  HIT:        121  MISS:          1  HIT %:    99.1803  MISS %:   0.819672   MPKI: 5e-06
L2C TRANSLATION FROM L1D PREFETCHER ACCESS:     196557  HIT:     196457  MISS:        100  HIT %:    99.9491  MISS %:  0.0508758   MPKI: 0.0005
L2C PREFETCH  REQUESTED:          0  ISSUED:          0  USEFUL:       7734  USELESS:       2278
L2C USEFUL LOAD PREFETCHES:       7734 PREFETCH ISSUED TO LOWER LEVEL:       9382  ACCURACY: 82.4344
L2C TIMELY PREFETCHES:       7734 LATE PREFETCHES: 0 DROPPED PREFETCHES: 0
L2C PREFETCHES SAME FILL-ORIGIN LEVEL: 7820 DIFFERENT FILL-ORIGIN LEVEL: 0
L2C AVERAGE MISS LATENCY: 154.436 cycles
L2C RQ	ACCESS:     264130	FORWARD:          0	MERGED:          0	TO_CACHE:     264130
L2C WQ	ACCESS:       2860	FORWARD:          0	MERGED:          0	TO_CACHE:       2860
L2C PQ	ACCESS:   14207398	FORWARD:          0	MERGED:          0	TO_CACHE:   14207398

L2C Instructions Evicting Data 0
L2C Translations Evicting Data 99
L2C Data Evicting Data 7989
L2C Instructions Evicting Instructions 0
L2C Translations Evicting Instructions 0
L2C Data Evicting Instructions 18
L2C Instructions Evicting Translations 0
L2C Translations Evicting Translations 0
L2C Data Evicting Translations 160
L2C Dense regions hint from L2: 0
PSCL5 TOTAL     ACCESS:     196679  HIT:     196679  MISS:          0  HIT %:        100  MISS %:          0   MPKI: 0
PSCL5 LOAD TRANSLATION ACCESS:        122  HIT:        122  MISS:          0  HIT %:        100  MISS %:          0   MPKI: 0
PSCL5 TRANSLATION FROM L1D PREFETCHER ACCESS:     196557  HIT:     196557  MISS:          0  HIT %:        100  MISS %:          0   MPKI: 0
PSCL5 PREFETCH  REQUESTED:          0  ISSUED:          0  USEFUL:          0  USELESS:          0
PSCL5 USEFUL LOAD PREFETCHES:          0 PREFETCH ISSUED TO LOWER LEVEL:          0  ACCURACY: -nan
PSCL5 TIMELY PREFETCHES:          0 LATE PREFETCHES: 0 DROPPED PREFETCHES: 0
PSCL5 PREFETCHES SAME FILL-ORIGIN LEVEL: 0 DIFFERENT FILL-ORIGIN LEVEL: 0

PSCL4 TOTAL     ACCESS:     196679  HIT:     196679  MISS:          0  HIT %:        100  MISS %:          0   MPKI: 0
PSCL4 LOAD TRANSLATION ACCESS:        122  HIT:        122  MISS:          0  HIT %:        100  MISS %:          0   MPKI: 0
PSCL4 TRANSLATION FROM L1D PREFETCHER ACCESS:     196557  HIT:     196557  MISS:          0  HIT %:        100  MISS %:          0   MPKI: 0
PSCL4 PREFETCH  REQUESTED:          0  ISSUED:          0  USEFUL:          0  USELESS:          0
PSCL4 USEFUL LOAD PREFETCHES:          0 PREFETCH ISSUED TO LOWER LEVEL:          0  ACCURACY: -nan
PSCL4 TIMELY PREFETCHES:          0 LATE PREFETCHES: 0 DROPPED PREFETCHES: 0
PSCL4 PREFETCHES SAME FILL-ORIGIN LEVEL: 0 DIFFERENT FILL-ORIGIN LEVEL: 0

PSCL3 TOTAL     ACCESS:     196679  HIT:     196679  MISS:          0  HIT %:        100  MISS %:          0   MPKI: 0
PSCL3 LOAD TRANSLATION ACCESS:        122  HIT:        122  MISS:          0  HIT %:        100  MISS %:          0   MPKI: 0
PSCL3 TRANSLATION FROM L1D PREFETCHER ACCESS:     196557  HIT:     196557  MISS:          0  HIT %:        100  MISS %:          0   MPKI: 0
PSCL3 PREFETCH  REQUESTED:          0  ISSUED:          0  USEFUL:          0  USELESS:          0
PSCL3 USEFUL LOAD PREFETCHES:          0 PREFETCH ISSUED TO LOWER LEVEL:          0  ACCURACY: -nan
PSCL3 TIMELY PREFETCHES:          0 LATE PREFETCHES: 0 DROPPED PREFETCHES: 0
PSCL3 PREFETCHES SAME FILL-ORIGIN LEVEL: 0 DIFFERENT FILL-ORIGIN LEVEL: 0

PSCL2 TOTAL     ACCESS:     196679  HIT:     196679  MISS:          0  HIT %:        100  MISS %:          0   MPKI: 0
PSCL2 LOAD TRANSLATION ACCESS:        122  HIT:        122  MISS:          0  HIT %:        100  MISS %:          0   MPKI: 0
PSCL2 TRANSLATION FROM L1D PREFETCHER ACCESS:     196557  HIT:     196557  MISS:          0  HIT %:        100  MISS %:          0   MPKI: 0
PSCL2 PREFETCH  REQUESTED:          0  ISSUED:          0  USEFUL:          0  USELESS:          0
PSCL2 USEFUL LOAD PREFETCHES:          0 PREFETCH ISSUED TO LOWER LEVEL:          0  ACCURACY: -nan
PSCL2 TIMELY PREFETCHES:          0 LATE PREFETCHES: 0 DROPPED PREFETCHES: 0
PSCL2 PREFETCHES SAME FILL-ORIGIN LEVEL: 0 DIFFERENT FILL-ORIGIN LEVEL: 0

LLC TOTAL     ACCESS:       9677  HIT:       1810  MISS:       7867  HIT %:    18.7041  MISS %:    81.2959   MPKI: 0.039335
LLC LOAD      ACCESS:         80  HIT:          4  MISS:         76  HIT %:          5  MISS %:         95   MPKI: 0.00038
LLC RFO       ACCESS:         70  HIT:          0  MISS:         70  HIT %:          0  MISS %:        100   MPKI: 0.00035
LLC PREFETCH  ACCESS:       9382  HIT:       1681  MISS:       7701  HIT %:    17.9173  MISS %:    82.0827   MPKI: 0.038505
LLC WRITEBACK ACCESS:         44  HIT:         44  MISS:          0  HIT %:        100  MISS %:          0   MPKI: 0
LLC LOAD TRANSLATION ACCESS:          1  HIT:          1  MISS:          0  HIT %:        100  MISS %:          0   MPKI: 0
LLC TRANSLATION FROM L1D PREFETCHER ACCESS:        100  HIT:         80  MISS:         20  HIT %:         80  MISS %:         20   MPKI: 0.0001
LLC PREFETCH  REQUESTED:          0  ISSUED:          0  USEFUL:         76  USELESS:        148
LLC USEFUL LOAD PREFETCHES:         76 PREFETCH ISSUED TO LOWER LEVEL:       7701  ACCURACY: 0.986885
LLC TIMELY PREFETCHES:         76 LATE PREFETCHES: 0 DROPPED PREFETCHES: 0
LLC PREFETCHES SAME FILL-ORIGIN LEVEL: 0 DIFFERENT FILL-ORIGIN LEVEL: 0
LLC AVERAGE MISS LATENCY: 152.369 cycles
LLC RQ	ACCESS:        251	FORWARD:          0	MERGED:          0	TO_CACHE:        251
LLC WQ	ACCESS:         44	FORWARD:          0	MERGED:          0	TO_CACHE:         44
LLC PQ	ACCESS:       9382	FORWARD:          0	MERGED:          0	TO_CACHE:       9382

LLC Dense regions hint to LLC: 0

RAW hits: 5988
Loads Generated: 34519887
Loads sent to L1D: 34513898
Stores Generated: 10044
Stores sent to L1D: 10044
Major fault: 0 Minor fault: 338
Allocated PAGES: 338

DRAM Statistics
 CHANNEL 0
 RQ ROW_BUFFER_HIT:       1387  ROW_BUFFER_MISS:       6480
 DBUS_CONGESTED:          0
 WQ ROW_BUFFER_HIT:          0  ROW_BUFFER_MISS:          0  FULL:          0

 AVG_CONGESTED_CYCLE: -
 All warmup complete: 2
Channel 0 Bank busy for read cycles: 0
Channel 0 Bank busy for write cycles: 0
Channel 0
Rank 0
0banks busy for read cycles: 184868735
0banks busy for write cycles: 0
1banks busy for read cycles: 917668
1banks busy for write cycles: 0
2banks busy for read cycles: 1599
2banks busy for write cycles: 0
3banks busy for read cycles: 1726
3banks busy for write cycles: 0
4banks busy for read cycles: 819
4banks busy for write cycles: 0
5banks busy for read cycles: 804
5banks busy for write cycles: 0
6banks busy for read cycles: 539
6banks busy for write cycles: 0
7banks busy for read cycles: 4304
7banks busy for write cycles: 0
8banks busy for read cycles: 9331
8banks busy for write cycles: 0

CPU 0 Branch Prediction Accuracy: 99.9996% MPKI: 0.000455 Average ROB Occupancy at Mispredict: 24.7802
Branch types
NOT_BRANCH: 179299049 89.6495%
BRANCH_DIRECT_JUMP: 1117 0.0005585%
BRANCH_INDIRECT: 0 0%
BRANCH_CONDITIONAL: 20699497 10.3497%
BRANCH_DIRECT_CALL: 0 0%
BRANCH_INDIRECT_CALL: 0 0%
BRANCH_RETURN: 0 0%
BRANCH_OTHER: 0 0%

DRAM PAGES: 1048576
Allocated PAGES: 338
