 (TOTAL 67349)
 
*** ChampSim Multicore Out-of-Order Simulator ***

Warmup Instructions: 50000000
Simulation Instructions: 200000000
Number of CPUs: 1
LLC sets: 2048
LLC ways: 16
Off-chip DRAM Size: 4096 MB Channels: 1 Width: 64-bit Data Rate: 6400 MT/s
argv[0]: ./ChampSim/Berti/bin/tagescl8kb-no-vberti-no-no-no-no-no-lru-lru-lru-srrip-drrip-lru-lru-lru-1core-no
argv[1]: -warmup_instructions
argv[2]: 50000000
argv[3]: -simulation_instructions
argv[4]: 200000000
argv[5]: -traces
argv[6]: traces/spec2k17_ten/638.imagick_s-4128B.champsimtrace.xz
CPU 0 runs traces/spec2k17_ten/638.imagick_s-4128B.champsimtrace.xz
.xz
CPU 0 Tage branch predictor
BTB has LRU replacement policy
ITLB has LRU replacement policy
DTLB has LRU replacement policy
STLB has LRU replacement policy
L1I has LRU replacement policy
History Sets: 8
History Ways: 16
BERTI Size: 16
BERTI Stride Size: 16
L1D has LRU replacement policy
Initialize SRRIP state for L2C
Initialize DRRIP state for LLC
Heartbeat CPU 0 instructions: 10000001 cycles: 2690100 heartbeat IPC: 3.71733 cumulative IPC: 3.71733 (Simulation time: 0 hr 3 min 32 sec) 
Heartbeat CPU 0 instructions: 20000002 cycles: 5379939 heartbeat IPC: 3.71769 cumulative IPC: 3.71751 (Simulation time: 0 hr 5 min 59 sec) 
Heartbeat CPU 0 instructions: 30000000 cycles: 8069842 heartbeat IPC: 3.71761 cumulative IPC: 3.71754 (Simulation time: 0 hr 8 min 34 sec) 
Heartbeat CPU 0 instructions: 40000001 cycles: 10759830 heartbeat IPC: 3.71749 cumulative IPC: 3.71753 (Simulation time: 0 hr 13 min 45 sec) 
Heartbeat CPU 0 instructions: 50000000 cycles: 13449609 heartbeat IPC: 3.71778 cumulative IPC: 3.71758 (Simulation time: 0 hr 16 min 43 sec) 

Warmup complete CPU 0 instructions: 50000004 cycles: 13449610 (Simulation time: 0 hr 16 min 43 sec) 

Heartbeat CPU 0 instructions: 60000000 cycles: 23364785 heartbeat IPC: 1.00855 cumulative IPC: 1.00855 (Simulation time: 0 hr 19 min 25 sec) 
Heartbeat CPU 0 instructions: 70000001 cycles: 33278847 heartbeat IPC: 1.00867 cumulative IPC: 1.00861 (Simulation time: 0 hr 22 min 0 sec) 
Heartbeat CPU 0 instructions: 80000003 cycles: 43192167 heartbeat IPC: 1.00874 cumulative IPC: 1.00866 (Simulation time: 0 hr 26 min 34 sec) 
Heartbeat CPU 0 instructions: 90000001 cycles: 53105634 heartbeat IPC: 1.00873 cumulative IPC: 1.00867 (Simulation time: 0 hr 32 min 8 sec) 
Heartbeat CPU 0 instructions: 100000000 cycles: 63018521 heartbeat IPC: 1.00879 cumulative IPC: 1.0087 (Simulation time: 0 hr 38 min 21 sec) 
Heartbeat CPU 0 instructions: 110000000 cycles: 72932391 heartbeat IPC: 1.00869 cumulative IPC: 1.0087 (Simulation time: 0 hr 42 min 40 sec) 
Heartbeat CPU 0 instructions: 120000003 cycles: 82846455 heartbeat IPC: 1.00867 cumulative IPC: 1.00869 (Simulation time: 0 hr 47 min 2 sec) 
Heartbeat CPU 0 instructions: 130000000 cycles: 92759220 heartbeat IPC: 1.0088 cumulative IPC: 1.0087 (Simulation time: 0 hr 50 min 28 sec) 
Heartbeat CPU 0 instructions: 140000000 cycles: 102672924 heartbeat IPC: 1.0087 cumulative IPC: 1.0087 (Simulation time: 0 hr 53 min 37 sec) 
Heartbeat CPU 0 instructions: 150000002 cycles: 112586087 heartbeat IPC: 1.00876 cumulative IPC: 1.00871 (Simulation time: 0 hr 57 min 47 sec) 
Heartbeat CPU 0 instructions: 160000001 cycles: 122499886 heartbeat IPC: 1.0087 cumulative IPC: 1.00871 (Simulation time: 1 hr 2 min 31 sec) 
Heartbeat CPU 0 instructions: 170000003 cycles: 132413264 heartbeat IPC: 1.00874 cumulative IPC: 1.00871 (Simulation time: 1 hr 6 min 51 sec) 
Heartbeat CPU 0 instructions: 180000003 cycles: 142327184 heartbeat IPC: 1.00868 cumulative IPC: 1.00871 (Simulation time: 1 hr 11 min 19 sec) 
Heartbeat CPU 0 instructions: 190000003 cycles: 152240196 heartbeat IPC: 1.00878 cumulative IPC: 1.00871 (Simulation time: 1 hr 14 min 59 sec) 
Heartbeat CPU 0 instructions: 200000002 cycles: 162154496 heartbeat IPC: 1.00864 cumulative IPC: 1.00871 (Simulation time: 1 hr 18 min 34 sec) 
Heartbeat CPU 0 instructions: 210000002 cycles: 172067241 heartbeat IPC: 1.0088 cumulative IPC: 1.00872 (Simulation time: 1 hr 22 min 13 sec) 
Heartbeat CPU 0 instructions: 220000000 cycles: 181981011 heartbeat IPC: 1.0087 cumulative IPC: 1.00871 (Simulation time: 1 hr 26 min 16 sec) 
Heartbeat CPU 0 instructions: 230000001 cycles: 191894813 heartbeat IPC: 1.00869 cumulative IPC: 1.00871 (Simulation time: 1 hr 28 min 53 sec) 
Heartbeat CPU 0 instructions: 240000003 cycles: 201808166 heartbeat IPC: 1.00874 cumulative IPC: 1.00871 (Simulation time: 1 hr 30 min 29 sec) 
Heartbeat CPU 0 instructions: 250000003 cycles: 211720853 heartbeat IPC: 1.00881 cumulative IPC: 1.00872 (Simulation time: 1 hr 33 min 1 sec) 
Finished CPU 0 instructions: 200000003 cycles: 198271244 cumulative IPC: 1.00872 (Simulation time: 1 hr 33 min 1 sec) 

ChampSim completed all CPUs

Region of Interest Statistics

CPU 0 cumulative IPC: 1.00872 instructions: 200000003 cycles: 198271244
ITLB TOTAL     ACCESS:   32946656  HIT:   32946656  MISS:          0  HIT %:        100  MISS %:          0   MPKI: 0
ITLB LOAD TRANSLATION ACCESS:   32946656  HIT:   32946656  MISS:          0  HIT %:        100  MISS %:          0   MPKI: 0
ITLB PREFETCH  REQUESTED:          0  ISSUED:          0  USEFUL:          0  USELESS:          0
ITLB USEFUL LOAD PREFETCHES:          0 PREFETCH ISSUED TO LOWER LEVEL:          0  ACCURACY: -nan
ITLB TIMELY PREFETCHES:          0 LATE PREFETCHES: 0 DROPPED PREFETCHES: 0
ITLB PREFETCHES SAME FILL-ORIGIN LEVEL: 0 DIFFERENT FILL-ORIGIN LEVEL: 0
ITLB AVERAGE MISS LATENCY: -nan cycles
ITLB RQ	ACCESS:   39662238	FORWARD:          0	MERGED:    6715582	TO_CACHE:   32946656

DTLB TOTAL     ACCESS:   28008560  HIT:   27935421  MISS:      73139  HIT %:    99.7389  MISS %:   0.261131   MPKI: 0.365695
DTLB LOAD TRANSLATION ACCESS:   28008560  HIT:   27935421  MISS:      73139  HIT %:    99.7389  MISS %:   0.261131   MPKI: 0.365695
DTLB PREFETCH  REQUESTED:          0  ISSUED:          0  USEFUL:          0  USELESS:          0
DTLB USEFUL LOAD PREFETCHES:          0 PREFETCH ISSUED TO LOWER LEVEL:          0  ACCURACY: -nan
DTLB TIMELY PREFETCHES:          0 LATE PREFETCHES: 0 DROPPED PREFETCHES: 0
DTLB PREFETCHES SAME FILL-ORIGIN LEVEL: 0 DIFFERENT FILL-ORIGIN LEVEL: 0
DTLB AVERAGE MISS LATENCY: 9.45072 cycles
DTLB RQ	ACCESS:   32722375	FORWARD:          0	MERGED:    4697666	TO_CACHE:   28024709

STLB TOTAL     ACCESS:   11601960  HIT:   11601624  MISS:        336  HIT %:    99.9971  MISS %: 0.00289606   MPKI: 0.00168
STLB LOAD TRANSLATION ACCESS:      73139  HIT:      72803  MISS:        336  HIT %:    99.5406  MISS %:   0.459399   MPKI: 0.00168
STLB TRANSLATION FROM L1D PREFETCHER ACCESS:   11528821  HIT:   11528821  MISS:          0  HIT %:        100  MISS %:          0   MPKI: 0
STLB PREFETCH  REQUESTED:          0  ISSUED:          0  USEFUL:          0  USELESS:          0
STLB USEFUL LOAD PREFETCHES:          0 PREFETCH ISSUED TO LOWER LEVEL:          0  ACCURACY: -nan
STLB TIMELY PREFETCHES:          0 LATE PREFETCHES: 15 DROPPED PREFETCHES: 1305643
STLB PREFETCHES SAME FILL-ORIGIN LEVEL: 0 DIFFERENT FILL-ORIGIN LEVEL: 0
STLB AVERAGE MISS LATENCY: 112.268 cycles
STLB RQ	ACCESS:   49080958	FORWARD:          0	MERGED:   36149386	TO_CACHE:   12931572

STLB Hit, L1D data hit: 0
STLB Hit, L2C data hit: 0
STLB Hit, LLC data hit: 0
STLB Hit, LLC data miss: 0
STLB STLB hints to L2: 0
L1D TOTAL     ACCESS:   79344205  HIT:   79321575  MISS:      22630  HIT %:    99.9715  MISS %:  0.0285213   MPKI: 0.11315
L1D LOAD      ACCESS:   26380322  HIT:   26359740  MISS:      20582  HIT %:     99.922  MISS %:  0.0780203   MPKI: 0.10291
L1D RFO       ACCESS:    6340668  HIT:    6339995  MISS:        673  HIT %:    99.9894  MISS %:   0.010614   MPKI: 0.003365
L1D PREFETCH  ACCESS:   46623215  HIT:   46621840  MISS:       1375  HIT %:    99.9971  MISS %: 0.00294917   MPKI: 0.006875
L1D PREFETCH  REQUESTED:  100903639  ISSUED:  100903616  USEFUL:       1351  USELESS:         38
L1D USEFUL LOAD PREFETCHES:       1351 PREFETCH ISSUED TO LOWER LEVEL:    1036573  ACCURACY: 0.130333
L1D TIMELY PREFETCHES:       1351 LATE PREFETCHES: 0 DROPPED PREFETCHES: 1348174
L1D PREFETCHES SAME FILL-ORIGIN LEVEL: 1375 DIFFERENT FILL-ORIGIN LEVEL: 1035198
L1D AVERAGE MISS LATENCY: 22.9347 cycles
L1D RQ	ACCESS:   59029141	FORWARD:          0	MERGED:   32642123	TO_CACHE:   26380363
L1D WQ	ACCESS:    6342012	FORWARD:       6655	MERGED:          0	TO_CACHE:    6342012
L1D PQ	ACCESS:   51895797	FORWARD:          0	MERGED:    2887978	TO_CACHE:   49007819

L1D UNIQUE REGIONS ACCESSED: 0
L1D REGIONS CONFLICTS: 0
L1D Cross Page Prefetch Requests: 14535347
L1D Same Page Prefetch Requests: 55519128
L1D ROI Sum of L1D PQ occupancy: 813648823
L1D PREFETCHES PUSHED FROM L2C: 0
L1I TOTAL     ACCESS:   39662235  HIT:   39662235  MISS:          0  HIT %:        100  MISS %:          0   MPKI: 0
L1I LOAD      ACCESS:   39662235  HIT:   39662235  MISS:          0  HIT %:        100  MISS %:          0   MPKI: 0
L1I PREFETCH  REQUESTED:          0  ISSUED:          0  USEFUL:          0  USELESS:          0
L1I USEFUL LOAD PREFETCHES:          0 PREFETCH ISSUED TO LOWER LEVEL:          0  ACCURACY: -nan
L1I TIMELY PREFETCHES:          0 LATE PREFETCHES: 0 DROPPED PREFETCHES: 0
L1I PREFETCHES SAME FILL-ORIGIN LEVEL: 0 DIFFERENT FILL-ORIGIN LEVEL: 0
L1I AVERAGE MISS LATENCY: -nan cycles
L1I RQ	ACCESS:   54281603	FORWARD:          0	MERGED:   14619365	TO_CACHE:   39662238

BTB TOTAL     ACCESS:   13959700  HIT:   13805307  MISS:     154393  HIT %:     98.894  MISS %:    1.10599   MPKI: 0.771965
BTB BRANCH_DIRECT_JUMP	ACCESS:     205772  HIT:     205762  MISS:         10
BTB BRANCH_INDIRECT	ACCESS:          0  HIT:          0  MISS:          0
BTB BRANCH_CONDITIONAL	ACCESS:   13361060  HIT:   13361037  MISS:         23
BTB BRANCH_DIRECT_CALL	ACCESS:     196434  HIT:     196422  MISS:         12
BTB BRANCH_INDIRECT_CALL	ACCESS:          0  HIT:          0  MISS:          0
BTB BRANCH_RETURN	ACCESS:     196434  HIT:      42086  MISS:     154348
BTB BRANCH_OTHER ACCESS:          0  HIT:          0  MISS:          0

L2C TOTAL     ACCESS:    2364363  HIT:    2342608  MISS:      21755  HIT %:    99.0799  MISS %:   0.920121   MPKI: 0.108775
L2C LOAD      ACCESS:      20582  HIT:      20250  MISS:        332  HIT %:    98.3869  MISS %:    1.61306   MPKI: 0.00166
L2C DATA LOAD MPKI: 0.00166
L2C INSTRUCTION LOAD MPKI: 0
L2C RFO       ACCESS:        673  HIT:         88  MISS:        585  HIT %:    13.0758  MISS %:    86.9242   MPKI: 0.002925
L2C PREFETCH  ACCESS:    1036443  HIT:    1015674  MISS:      20769  HIT %:    97.9961  MISS %:    2.00387   MPKI: 0.103845
L2C DATA PREFETCH MPKI: 0.103845
L2C INSTRUCTION PREFETCH MPKI: 0
L2C WRITEBACK ACCESS:        671  HIT:        670  MISS:          1  HIT %:     99.851  MISS %:   0.149031   MPKI: 5e-06
L2C LOAD TRANSLATION ACCESS:        336  HIT:        334  MISS:          2  HIT %:    99.4048  MISS %:   0.595238   MPKI: 1e-05
L2C TRANSLATION FROM L1D PREFETCHER ACCESS:    1305658  HIT:    1305592  MISS:         66  HIT %:    99.9949  MISS %: 0.00505492   MPKI: 0.00033
L2C PREFETCH  REQUESTED:          0  ISSUED:          0  USEFUL:      19478  USELESS:       1100
L2C USEFUL LOAD PREFETCHES:      19478 PREFETCH ISSUED TO LOWER LEVEL:      20800  ACCURACY: 93.6442
L2C TIMELY PREFETCHES:      19478 LATE PREFETCHES: 31 DROPPED PREFETCHES: 0
L2C PREFETCHES SAME FILL-ORIGIN LEVEL: 20772 DIFFERENT FILL-ORIGIN LEVEL: 0
L2C AVERAGE MISS LATENCY: 149.296 cycles
L2C RQ	ACCESS:    1327249	FORWARD:          0	MERGED:          0	TO_CACHE:    1327249
L2C WQ	ACCESS:        671	FORWARD:          0	MERGED:          0	TO_CACHE:        671
L2C PQ	ACCESS:    1036573	FORWARD:          0	MERGED:          0	TO_CACHE:    1036573

L2C Instructions Evicting Data 0
L2C Translations Evicting Data 64
L2C Data Evicting Data 19524
L2C Instructions Evicting Instructions 0
L2C Translations Evicting Instructions 0
L2C Data Evicting Instructions 55
L2C Instructions Evicting Translations 0
L2C Translations Evicting Translations 0
L2C Data Evicting Translations 84
L2C Dense regions hint from L2: 0
PSCL5 TOTAL     ACCESS:    1305994  HIT:    1305994  MISS:          0  HIT %:        100  MISS %:          0   MPKI: 0
PSCL5 LOAD TRANSLATION ACCESS:        336  HIT:        336  MISS:          0  HIT %:        100  MISS %:          0   MPKI: 0
PSCL5 TRANSLATION FROM L1D PREFETCHER ACCESS:    1305658  HIT:    1305658  MISS:          0  HIT %:        100  MISS %:          0   MPKI: 0
PSCL5 PREFETCH  REQUESTED:          0  ISSUED:          0  USEFUL:          0  USELESS:          0
PSCL5 USEFUL LOAD PREFETCHES:          0 PREFETCH ISSUED TO LOWER LEVEL:          0  ACCURACY: -nan
PSCL5 TIMELY PREFETCHES:          0 LATE PREFETCHES: 0 DROPPED PREFETCHES: 0
PSCL5 PREFETCHES SAME FILL-ORIGIN LEVEL: 0 DIFFERENT FILL-ORIGIN LEVEL: 0

PSCL4 TOTAL     ACCESS:    1305994  HIT:    1305994  MISS:          0  HIT %:        100  MISS %:          0   MPKI: 0
PSCL4 LOAD TRANSLATION ACCESS:        336  HIT:        336  MISS:          0  HIT %:        100  MISS %:          0   MPKI: 0
PSCL4 TRANSLATION FROM L1D PREFETCHER ACCESS:    1305658  HIT:    1305658  MISS:          0  HIT %:        100  MISS %:          0   MPKI: 0
PSCL4 PREFETCH  REQUESTED:          0  ISSUED:          0  USEFUL:          0  USELESS:          0
PSCL4 USEFUL LOAD PREFETCHES:          0 PREFETCH ISSUED TO LOWER LEVEL:          0  ACCURACY: -nan
PSCL4 TIMELY PREFETCHES:          0 LATE PREFETCHES: 0 DROPPED PREFETCHES: 0
PSCL4 PREFETCHES SAME FILL-ORIGIN LEVEL: 0 DIFFERENT FILL-ORIGIN LEVEL: 0

PSCL3 TOTAL     ACCESS:    1305994  HIT:    1305994  MISS:          0  HIT %:        100  MISS %:          0   MPKI: 0
PSCL3 LOAD TRANSLATION ACCESS:        336  HIT:        336  MISS:          0  HIT %:        100  MISS %:          0   MPKI: 0
PSCL3 TRANSLATION FROM L1D PREFETCHER ACCESS:    1305658  HIT:    1305658  MISS:          0  HIT %:        100  MISS %:          0   MPKI: 0
PSCL3 PREFETCH  REQUESTED:          0  ISSUED:          0  USEFUL:          0  USELESS:          0
PSCL3 USEFUL LOAD PREFETCHES:          0 PREFETCH ISSUED TO LOWER LEVEL:          0  ACCURACY: -nan
PSCL3 TIMELY PREFETCHES:          0 LATE PREFETCHES: 0 DROPPED PREFETCHES: 0
PSCL3 PREFETCHES SAME FILL-ORIGIN LEVEL: 0 DIFFERENT FILL-ORIGIN LEVEL: 0

PSCL2 TOTAL     ACCESS:    1305994  HIT:    1305994  MISS:          0  HIT %:        100  MISS %:          0   MPKI: 0
PSCL2 LOAD TRANSLATION ACCESS:        336  HIT:        336  MISS:          0  HIT %:        100  MISS %:          0   MPKI: 0
PSCL2 TRANSLATION FROM L1D PREFETCHER ACCESS:    1305658  HIT:    1305658  MISS:          0  HIT %:        100  MISS %:          0   MPKI: 0
PSCL2 PREFETCH  REQUESTED:          0  ISSUED:          0  USEFUL:          0  USELESS:          0
PSCL2 USEFUL LOAD PREFETCHES:          0 PREFETCH ISSUED TO LOWER LEVEL:          0  ACCURACY: -nan
PSCL2 TIMELY PREFETCHES:          0 LATE PREFETCHES: 0 DROPPED PREFETCHES: 0
PSCL2 PREFETCHES SAME FILL-ORIGIN LEVEL: 0 DIFFERENT FILL-ORIGIN LEVEL: 0

LLC TOTAL     ACCESS:      22277  HIT:        567  MISS:      21710  HIT %:    2.54523  MISS %:    97.4548   MPKI: 0.10855
LLC LOAD      ACCESS:        301  HIT:          5  MISS:        296  HIT %:    1.66113  MISS %:    98.3389   MPKI: 0.00148
LLC RFO       ACCESS:        585  HIT:          0  MISS:        585  HIT %:          0  MISS %:        100   MPKI: 0.002925
LLC PREFETCH  ACCESS:      20800  HIT:         27  MISS:      20773  HIT %:   0.129808  MISS %:    99.8702   MPKI: 0.103865
LLC WRITEBACK ACCESS:        523  HIT:        515  MISS:          8  HIT %:    98.4704  MISS %:    1.52964   MPKI: 4e-05
LLC LOAD TRANSLATION ACCESS:          2  HIT:          1  MISS:          1  HIT %:         50  MISS %:         50   MPKI: 5e-06
LLC TRANSLATION FROM L1D PREFETCHER ACCESS:         66  HIT:         19  MISS:         47  HIT %:    28.7879  MISS %:    71.2121   MPKI: 0.000235
LLC PREFETCH  REQUESTED:          0  ISSUED:          0  USEFUL:         17  USELESS:        319
LLC USEFUL LOAD PREFETCHES:         17 PREFETCH ISSUED TO LOWER LEVEL:      20773  ACCURACY: 0.081837
LLC TIMELY PREFETCHES:         17 LATE PREFETCHES: 0 DROPPED PREFETCHES: 0
LLC PREFETCHES SAME FILL-ORIGIN LEVEL: 0 DIFFERENT FILL-ORIGIN LEVEL: 0
LLC AVERAGE MISS LATENCY: 119.529 cycles
LLC RQ	ACCESS:        954	FORWARD:          0	MERGED:          0	TO_CACHE:        954
LLC WQ	ACCESS:        523	FORWARD:          0	MERGED:          0	TO_CACHE:        523
LLC PQ	ACCESS:      20800	FORWARD:          0	MERGED:          0	TO_CACHE:      20800

LLC Dense regions hint to LLC: 0

RAW hits: 92515
Loads Generated: 59121657
Loads sent to L1D: 59029141
Stores Generated: 6342012
Stores sent to L1D: 6342012
Major fault: 0 Minor fault: 508
Allocated PAGES: 508

DRAM Statistics
 CHANNEL 0
 RQ ROW_BUFFER_HIT:      10945  ROW_BUFFER_MISS:      10757
 DBUS_CONGESTED:          0
 WQ ROW_BUFFER_HIT:          0  ROW_BUFFER_MISS:          0  FULL:          0

 AVG_CONGESTED_CYCLE: -
 All warmup complete: 2
Channel 0 Bank busy for read cycles: 0
Channel 0 Bank busy for write cycles: 0
Channel 0
Rank 0
0banks busy for read cycles: 196121481
0banks busy for write cycles: 0
1banks busy for read cycles: 2143164
1banks busy for write cycles: 0
2banks busy for read cycles: 5193
2banks busy for write cycles: 0
3banks busy for read cycles: 105
3banks busy for write cycles: 0
4banks busy for read cycles: 307
4banks busy for write cycles: 0
5banks busy for read cycles: 353
5banks busy for write cycles: 0
6banks busy for read cycles: 552
6banks busy for write cycles: 0
7banks busy for read cycles: 90
7banks busy for write cycles: 0
8banks busy for read cycles: 0
8banks busy for write cycles: 0

CPU 0 Branch Prediction Accuracy: 100% MPKI: 0 Average ROB Occupancy at Mispredict: -nan
Branch types
NOT_BRANCH: 161296206 80.6481%
BRANCH_DIRECT_JUMP: 205772 0.102886%
BRANCH_INDIRECT: 0 0%
BRANCH_CONDITIONAL: 38104823 19.0524%
BRANCH_DIRECT_CALL: 196434 0.098217%
BRANCH_INDIRECT_CALL: 0 0%
BRANCH_RETURN: 196434 0.098217%
BRANCH_OTHER: 0 0%

DRAM PAGES: 1048576
Allocated PAGES: 508
