 (TOTAL 67349)
 
*** ChampSim Multicore Out-of-Order Simulator ***

Warmup Instructions: 50000000
Simulation Instructions: 200000000
Number of CPUs: 1
LLC sets: 2048
LLC ways: 16
Off-chip DRAM Size: 4096 MB Channels: 1 Width: 64-bit Data Rate: 6400 MT/s
argv[0]: ./ChampSim/Berti/bin/tagescl8kb-no-vberti-no-no-no-no-no-lru-lru-lru-srrip-drrip-lru-lru-lru-1core-no
argv[1]: -warmup_instructions
argv[2]: 50000000
argv[3]: -simulation_instructions
argv[4]: 200000000
argv[5]: -traces
argv[6]: traces/spec2k17_ten/638.imagick_s-824B.champsimtrace.xz
CPU 0 runs traces/spec2k17_ten/638.imagick_s-824B.champsimtrace.xz
.xz
CPU 0 Tage branch predictor
BTB has LRU replacement policy
ITLB has LRU replacement policy
DTLB has LRU replacement policy
STLB has LRU replacement policy
L1I has LRU replacement policy
History Sets: 8
History Ways: 16
BERTI Size: 16
BERTI Stride Size: 16
L1D has LRU replacement policy
Initialize SRRIP state for L2C
Initialize DRRIP state for LLC
Heartbeat CPU 0 instructions: 10000001 cycles: 3090405 heartbeat IPC: 3.23582 cumulative IPC: 3.23582 (Simulation time: 0 hr 2 min 24 sec) 
Heartbeat CPU 0 instructions: 20000003 cycles: 6180331 heartbeat IPC: 3.23632 cumulative IPC: 3.23607 (Simulation time: 0 hr 5 min 57 sec) 
Heartbeat CPU 0 instructions: 30000002 cycles: 9270918 heartbeat IPC: 3.23563 cumulative IPC: 3.23593 (Simulation time: 0 hr 9 min 32 sec) 
Heartbeat CPU 0 instructions: 40000002 cycles: 12361605 heartbeat IPC: 3.23553 cumulative IPC: 3.23583 (Simulation time: 0 hr 14 min 18 sec) 
Heartbeat CPU 0 instructions: 50000003 cycles: 15451324 heartbeat IPC: 3.23654 cumulative IPC: 3.23597 (Simulation time: 0 hr 18 min 35 sec) 

Warmup complete CPU 0 instructions: 50000003 cycles: 15451324 (Simulation time: 0 hr 18 min 35 sec) 

Heartbeat CPU 0 instructions: 60000000 cycles: 31758461 heartbeat IPC: 0.613228 cumulative IPC: 0.613228 (Simulation time: 0 hr 24 min 2 sec) 
Heartbeat CPU 0 instructions: 70000000 cycles: 47926627 heartbeat IPC: 0.618499 cumulative IPC: 0.615853 (Simulation time: 0 hr 31 min 43 sec) 
Heartbeat CPU 0 instructions: 80000000 cycles: 64238083 heartbeat IPC: 0.613066 cumulative IPC: 0.614921 (Simulation time: 0 hr 38 min 51 sec) 
Heartbeat CPU 0 instructions: 90000000 cycles: 80432402 heartbeat IPC: 0.6175 cumulative IPC: 0.615564 (Simulation time: 0 hr 45 min 2 sec) 
Heartbeat CPU 0 instructions: 100000001 cycles: 96723610 heartbeat IPC: 0.613828 cumulative IPC: 0.615216 (Simulation time: 0 hr 51 min 42 sec) 
Heartbeat CPU 0 instructions: 110000000 cycles: 112915943 heartbeat IPC: 0.617576 cumulative IPC: 0.615608 (Simulation time: 0 hr 58 min 50 sec) 
Heartbeat CPU 0 instructions: 120000000 cycles: 129206025 heartbeat IPC: 0.61387 cumulative IPC: 0.615359 (Simulation time: 1 hr 5 min 1 sec) 
Heartbeat CPU 0 instructions: 130000000 cycles: 145448053 heartbeat IPC: 0.615687 cumulative IPC: 0.6154 (Simulation time: 1 hr 10 min 23 sec) 
Heartbeat CPU 0 instructions: 140000000 cycles: 161685887 heartbeat IPC: 0.615846 cumulative IPC: 0.61545 (Simulation time: 1 hr 14 min 45 sec) 
Heartbeat CPU 0 instructions: 150000001 cycles: 177989916 heartbeat IPC: 0.613345 cumulative IPC: 0.615238 (Simulation time: 1 hr 19 min 54 sec) 
Heartbeat CPU 0 instructions: 160000000 cycles: 194167595 heartbeat IPC: 0.618136 cumulative IPC: 0.615501 (Simulation time: 1 hr 24 min 1 sec) 
Heartbeat CPU 0 instructions: 170000000 cycles: 210479437 heartbeat IPC: 0.613052 cumulative IPC: 0.615296 (Simulation time: 1 hr 28 min 23 sec) 
Heartbeat CPU 0 instructions: 180000000 cycles: 226651946 heartbeat IPC: 0.618333 cumulative IPC: 0.615528 (Simulation time: 1 hr 32 min 29 sec) 
Heartbeat CPU 0 instructions: 190000001 cycles: 242955898 heartbeat IPC: 0.613348 cumulative IPC: 0.615372 (Simulation time: 1 hr 35 min 30 sec) 
Heartbeat CPU 0 instructions: 200000002 cycles: 259144753 heartbeat IPC: 0.617709 cumulative IPC: 0.615527 (Simulation time: 1 hr 38 min 19 sec) 
Heartbeat CPU 0 instructions: 210000000 cycles: 275443117 heartbeat IPC: 0.613558 cumulative IPC: 0.615404 (Simulation time: 1 hr 40 min 45 sec) 
Heartbeat CPU 0 instructions: 220000000 cycles: 291633812 heartbeat IPC: 0.617639 cumulative IPC: 0.615535 (Simulation time: 1 hr 43 min 47 sec) 
Heartbeat CPU 0 instructions: 230000000 cycles: 307920899 heartbeat IPC: 0.613983 cumulative IPC: 0.615449 (Simulation time: 1 hr 46 min 36 sec) 
Heartbeat CPU 0 instructions: 240000001 cycles: 324139971 heartbeat IPC: 0.616558 cumulative IPC: 0.615507 (Simulation time: 1 hr 49 min 3 sec) 
Heartbeat CPU 0 instructions: 250000001 cycles: 340395590 heartbeat IPC: 0.615172 cumulative IPC: 0.61549 (Simulation time: 1 hr 50 min 35 sec) 
Finished CPU 0 instructions: 200000002 cycles: 324944267 cumulative IPC: 0.61549 (Simulation time: 1 hr 50 min 35 sec) 

ChampSim completed all CPUs

Region of Interest Statistics

CPU 0 cumulative IPC: 0.61549 instructions: 200000002 cycles: 324944267
ITLB TOTAL     ACCESS:   30806099  HIT:   30806099  MISS:          0  HIT %:        100  MISS %:          0   MPKI: 0
ITLB LOAD TRANSLATION ACCESS:   30806099  HIT:   30806099  MISS:          0  HIT %:        100  MISS %:          0   MPKI: 0
ITLB PREFETCH  REQUESTED:          0  ISSUED:          0  USEFUL:          0  USELESS:          0
ITLB USEFUL LOAD PREFETCHES:          0 PREFETCH ISSUED TO LOWER LEVEL:          0  ACCURACY: -nan
ITLB TIMELY PREFETCHES:          0 LATE PREFETCHES: 0 DROPPED PREFETCHES: 0
ITLB PREFETCHES SAME FILL-ORIGIN LEVEL: 0 DIFFERENT FILL-ORIGIN LEVEL: 0
ITLB AVERAGE MISS LATENCY: -nan cycles
ITLB RQ	ACCESS:   35743310	FORWARD:          0	MERGED:    4937212	TO_CACHE:   30806098

DTLB TOTAL     ACCESS:   29752982  HIT:   29752319  MISS:        663  HIT %:    99.9978  MISS %: 0.00222835   MPKI: 0.003315
DTLB LOAD TRANSLATION ACCESS:   29752982  HIT:   29752319  MISS:        663  HIT %:    99.9978  MISS %: 0.00222835   MPKI: 0.003315
DTLB PREFETCH  REQUESTED:          0  ISSUED:          0  USEFUL:          0  USELESS:          0
DTLB USEFUL LOAD PREFETCHES:          0 PREFETCH ISSUED TO LOWER LEVEL:          0  ACCURACY: -nan
DTLB TIMELY PREFETCHES:          0 LATE PREFETCHES: 0 DROPPED PREFETCHES: 0
DTLB PREFETCHES SAME FILL-ORIGIN LEVEL: 0 DIFFERENT FILL-ORIGIN LEVEL: 0
DTLB AVERAGE MISS LATENCY: 120 cycles
DTLB RQ	ACCESS:   34291934	FORWARD:          0	MERGED:    4538952	TO_CACHE:   29752982

STLB TOTAL     ACCESS:     338846  HIT:     338183  MISS:        663  HIT %:    99.8043  MISS %:   0.195664   MPKI: 0.003315
STLB LOAD TRANSLATION ACCESS:        663  HIT:          0  MISS:        663  HIT %:          0  MISS %:        100   MPKI: 0.003315
STLB TRANSLATION FROM L1D PREFETCHER ACCESS:     338183  HIT:     338183  MISS:          0  HIT %:        100  MISS %:          0   MPKI: 0
STLB PREFETCH  REQUESTED:          0  ISSUED:          0  USEFUL:          0  USELESS:          0
STLB USEFUL LOAD PREFETCHES:          0 PREFETCH ISSUED TO LOWER LEVEL:          0  ACCURACY: -nan
STLB TIMELY PREFETCHES:          0 LATE PREFETCHES: 0 DROPPED PREFETCHES: 62793
STLB PREFETCHES SAME FILL-ORIGIN LEVEL: 0 DIFFERENT FILL-ORIGIN LEVEL: 0
STLB AVERAGE MISS LATENCY: 111 cycles
STLB RQ	ACCESS:    2828091	FORWARD:          0	MERGED:    2426452	TO_CACHE:     401639

STLB Hit, L1D data hit: 0
STLB Hit, L2C data hit: 0
STLB Hit, LLC data hit: 0
STLB Hit, LLC data miss: 0
STLB STLB hints to L2: 0
L1D TOTAL     ACCESS:   36302512  HIT:   36259560  MISS:      42952  HIT %:    99.8817  MISS %:   0.118317   MPKI: 0.21476
L1D LOAD      ACCESS:   24281875  HIT:   24280841  MISS:       1034  HIT %:    99.9957  MISS %: 0.00425832   MPKI: 0.00517
L1D RFO       ACCESS:   10009895  HIT:   10009770  MISS:        125  HIT %:    99.9988  MISS %: 0.00124876   MPKI: 0.000625
L1D PREFETCH  ACCESS:    2010742  HIT:    1968949  MISS:      41793  HIT %:    97.9215  MISS %:    2.07849   MPKI: 0.208965
L1D PREFETCH  REQUESTED:    5654856  ISSUED:    5654856  USEFUL:      41791  USELESS:          0
L1D USEFUL LOAD PREFETCHES:      41791 PREFETCH ISSUED TO LOWER LEVEL:     605599  ACCURACY: 6.90077
L1D TIMELY PREFETCHES:      41791 LATE PREFETCHES: 0 DROPPED PREFETCHES: 252881
L1D PREFETCHES SAME FILL-ORIGIN LEVEL: 41793 DIFFERENT FILL-ORIGIN LEVEL: 563806
L1D AVERAGE MISS LATENCY: 32.3604 cycles
L1D RQ	ACCESS:   36360347	FORWARD:          0	MERGED:   10183839	TO_CACHE:   24281877
L1D WQ	ACCESS:   10010086	FORWARD:    1894631	MERGED:         29	TO_CACHE:   10010057
L1D PQ	ACCESS:    2827428	FORWARD:          0	MERGED:          0	TO_CACHE:    2827428

L1D UNIQUE REGIONS ACCESSED: 0
L1D REGIONS CONFLICTS: 0
L1D Cross Page Prefetch Requests: 332324
L1D Same Page Prefetch Requests: 3446289
L1D ROI Sum of L1D PQ occupancy: 47204808
L1D PREFETCHES PUSHED FROM L2C: 0
L1I TOTAL     ACCESS:   35743311  HIT:   35743311  MISS:          0  HIT %:        100  MISS %:          0   MPKI: 0
L1I LOAD      ACCESS:   35743311  HIT:   35743311  MISS:          0  HIT %:        100  MISS %:          0   MPKI: 0
L1I PREFETCH  REQUESTED:          0  ISSUED:          0  USEFUL:          0  USELESS:          0
L1I USEFUL LOAD PREFETCHES:          0 PREFETCH ISSUED TO LOWER LEVEL:          0  ACCURACY: -nan
L1I TIMELY PREFETCHES:          0 LATE PREFETCHES: 0 DROPPED PREFETCHES: 0
L1I PREFETCHES SAME FILL-ORIGIN LEVEL: 0 DIFFERENT FILL-ORIGIN LEVEL: 0
L1I AVERAGE MISS LATENCY: -nan cycles
L1I RQ	ACCESS:   52319232	FORWARD:          0	MERGED:   16575922	TO_CACHE:   35743310

BTB TOTAL     ACCESS:   19765215  HIT:   18776653  MISS:     988562  HIT %:    94.9985  MISS %:    5.00152   MPKI: 4.94281
BTB BRANCH_DIRECT_JUMP	ACCESS:    1659519  HIT:    1659506  MISS:         13
BTB BRANCH_INDIRECT	ACCESS:     339627  HIT:     339626  MISS:          1
BTB BRANCH_CONDITIONAL	ACCESS:    8270195  HIT:    8270164  MISS:         31
BTB BRANCH_DIRECT_CALL	ACCESS:    4747936  HIT:    4747921  MISS:         15
BTB BRANCH_INDIRECT_CALL	ACCESS:          0  HIT:          0  MISS:          0
BTB BRANCH_RETURN	ACCESS:    4747938  HIT:    3759436  MISS:     988502
BTB BRANCH_OTHER ACCESS:          0  HIT:          0  MISS:          0

L2C TOTAL     ACCESS:     712865  HIT:     670227  MISS:      42638  HIT %:    94.0188  MISS %:    5.98122   MPKI: 0.21319
L2C LOAD      ACCESS:       1034  HIT:        364  MISS:        670  HIT %:    35.2031  MISS %:    64.7969   MPKI: 0.00335
L2C DATA LOAD MPKI: 0.00335
L2C INSTRUCTION LOAD MPKI: 0
L2C RFO       ACCESS:        125  HIT:        125  MISS:          0  HIT %:        100  MISS %:          0   MPKI: 0
L2C PREFETCH  ACCESS:     605577  HIT:     563784  MISS:      41793  HIT %:    93.0986  MISS %:    6.90135   MPKI: 0.208965
L2C DATA PREFETCH MPKI: 0.208965
L2C INSTRUCTION PREFETCH MPKI: 0
L2C WRITEBACK ACCESS:      42673  HIT:      42582  MISS:         91  HIT %:    99.7868  MISS %:    0.21325   MPKI: 0.000455
L2C LOAD TRANSLATION ACCESS:        663  HIT:        663  MISS:          0  HIT %:        100  MISS %:          0   MPKI: 0
L2C TRANSLATION FROM L1D PREFETCHER ACCESS:      62793  HIT:      62709  MISS:         84  HIT %:    99.8662  MISS %:   0.133773   MPKI: 0.00042
L2C PREFETCH  REQUESTED:          0  ISSUED:          0  USEFUL:         84  USELESS:      41782
L2C USEFUL LOAD PREFETCHES:         84 PREFETCH ISSUED TO LOWER LEVEL:      41793  ACCURACY: 0.200991
L2C TIMELY PREFETCHES:         84 LATE PREFETCHES: 0 DROPPED PREFETCHES: 0
L2C PREFETCHES SAME FILL-ORIGIN LEVEL: 37915 DIFFERENT FILL-ORIGIN LEVEL: 0
L2C AVERAGE MISS LATENCY: 150.423 cycles
L2C RQ	ACCESS:      64615	FORWARD:          0	MERGED:          0	TO_CACHE:      64615
L2C WQ	ACCESS:      42673	FORWARD:          0	MERGED:          0	TO_CACHE:      42673
L2C PQ	ACCESS:     605599	FORWARD:          0	MERGED:          0	TO_CACHE:     605599

L2C Instructions Evicting Data 0
L2C Translations Evicting Data 84
L2C Data Evicting Data 42381
L2C Instructions Evicting Instructions 0
L2C Translations Evicting Instructions 0
L2C Data Evicting Instructions 0
L2C Instructions Evicting Translations 0
L2C Translations Evicting Translations 0
L2C Data Evicting Translations 82
L2C Dense regions hint from L2: 0
PSCL5 TOTAL     ACCESS:      63456  HIT:      63456  MISS:          0  HIT %:        100  MISS %:          0   MPKI: 0
PSCL5 LOAD TRANSLATION ACCESS:        663  HIT:        663  MISS:          0  HIT %:        100  MISS %:          0   MPKI: 0
PSCL5 TRANSLATION FROM L1D PREFETCHER ACCESS:      62793  HIT:      62793  MISS:          0  HIT %:        100  MISS %:          0   MPKI: 0
PSCL5 PREFETCH  REQUESTED:          0  ISSUED:          0  USEFUL:          0  USELESS:          0
PSCL5 USEFUL LOAD PREFETCHES:          0 PREFETCH ISSUED TO LOWER LEVEL:          0  ACCURACY: -nan
PSCL5 TIMELY PREFETCHES:          0 LATE PREFETCHES: 0 DROPPED PREFETCHES: 0
PSCL5 PREFETCHES SAME FILL-ORIGIN LEVEL: 0 DIFFERENT FILL-ORIGIN LEVEL: 0

PSCL4 TOTAL     ACCESS:      63456  HIT:      63456  MISS:          0  HIT %:        100  MISS %:          0   MPKI: 0
PSCL4 LOAD TRANSLATION ACCESS:        663  HIT:        663  MISS:          0  HIT %:        100  MISS %:          0   MPKI: 0
PSCL4 TRANSLATION FROM L1D PREFETCHER ACCESS:      62793  HIT:      62793  MISS:          0  HIT %:        100  MISS %:          0   MPKI: 0
PSCL4 PREFETCH  REQUESTED:          0  ISSUED:          0  USEFUL:          0  USELESS:          0
PSCL4 USEFUL LOAD PREFETCHES:          0 PREFETCH ISSUED TO LOWER LEVEL:          0  ACCURACY: -nan
PSCL4 TIMELY PREFETCHES:          0 LATE PREFETCHES: 0 DROPPED PREFETCHES: 0
PSCL4 PREFETCHES SAME FILL-ORIGIN LEVEL: 0 DIFFERENT FILL-ORIGIN LEVEL: 0

PSCL3 TOTAL     ACCESS:      63456  HIT:      63456  MISS:          0  HIT %:        100  MISS %:          0   MPKI: 0
PSCL3 LOAD TRANSLATION ACCESS:        663  HIT:        663  MISS:          0  HIT %:        100  MISS %:          0   MPKI: 0
PSCL3 TRANSLATION FROM L1D PREFETCHER ACCESS:      62793  HIT:      62793  MISS:          0  HIT %:        100  MISS %:          0   MPKI: 0
PSCL3 PREFETCH  REQUESTED:          0  ISSUED:          0  USEFUL:          0  USELESS:          0
PSCL3 USEFUL LOAD PREFETCHES:          0 PREFETCH ISSUED TO LOWER LEVEL:          0  ACCURACY: -nan
PSCL3 TIMELY PREFETCHES:          0 LATE PREFETCHES: 0 DROPPED PREFETCHES: 0
PSCL3 PREFETCHES SAME FILL-ORIGIN LEVEL: 0 DIFFERENT FILL-ORIGIN LEVEL: 0

PSCL2 TOTAL     ACCESS:      63368  HIT:      63367  MISS:          1  HIT %:    99.9984  MISS %: 0.00157808   MPKI: 5e-06
PSCL2 LOAD TRANSLATION ACCESS:        663  HIT:        662  MISS:          1  HIT %:    99.8492  MISS %:    0.15083   MPKI: 5e-06
PSCL2 TRANSLATION FROM L1D PREFETCHER ACCESS:      62705  HIT:      62705  MISS:          0  HIT %:        100  MISS %:          0   MPKI: 0
PSCL2 PREFETCH  REQUESTED:          0  ISSUED:          0  USEFUL:          0  USELESS:          0
PSCL2 USEFUL LOAD PREFETCHES:          0 PREFETCH ISSUED TO LOWER LEVEL:          0  ACCURACY: -nan
PSCL2 TIMELY PREFETCHES:          0 LATE PREFETCHES: 0 DROPPED PREFETCHES: 0
PSCL2 PREFETCHES SAME FILL-ORIGIN LEVEL: 0 DIFFERENT FILL-ORIGIN LEVEL: 0

LLC TOTAL     ACCESS:      85007  HIT:      41831  MISS:      43176  HIT %:    49.2089  MISS %:    50.7911   MPKI: 0.21588
LLC LOAD      ACCESS:        670  HIT:          4  MISS:        666  HIT %:   0.597015  MISS %:     99.403   MPKI: 0.00333
LLC PREFETCH  ACCESS:      41793  HIT:          0  MISS:      41793  HIT %:          0  MISS %:        100   MPKI: 0.208965
LLC WRITEBACK ACCESS:      42460  HIT:      41827  MISS:        633  HIT %:    98.5092  MISS %:    1.49081   MPKI: 0.003165
LLC TRANSLATION FROM L1D PREFETCHER ACCESS:         84  HIT:          0  MISS:         84  HIT %:          0  MISS %:        100   MPKI: 0.00042
LLC PREFETCH  REQUESTED:          0  ISSUED:          0  USEFUL:          0  USELESS:      20440
LLC USEFUL LOAD PREFETCHES:          0 PREFETCH ISSUED TO LOWER LEVEL:      41793  ACCURACY: 0
LLC TIMELY PREFETCHES:          0 LATE PREFETCHES: 0 DROPPED PREFETCHES: 0
LLC PREFETCHES SAME FILL-ORIGIN LEVEL: 0 DIFFERENT FILL-ORIGIN LEVEL: 0
LLC AVERAGE MISS LATENCY: 118.985 cycles
LLC RQ	ACCESS:        754	FORWARD:          0	MERGED:          0	TO_CACHE:        754
LLC WQ	ACCESS:      42460	FORWARD:          0	MERGED:          0	TO_CACHE:      42460
LLC PQ	ACCESS:      41793	FORWARD:          0	MERGED:          0	TO_CACHE:      41793

LLC Dense regions hint to LLC: 0

RAW hits: 2962315
Loads Generated: 39322662
Loads sent to L1D: 36360347
Stores Generated: 10010085
Stores sent to L1D: 10010086
Major fault: 0 Minor fault: 870
Allocated PAGES: 870

DRAM Statistics
 CHANNEL 0
 RQ ROW_BUFFER_HIT:      22862  ROW_BUFFER_MISS:      19681
 DBUS_CONGESTED:          0
 WQ ROW_BUFFER_HIT:        875  ROW_BUFFER_MISS:      19402  FULL:          0

 AVG_CONGESTED_CYCLE: -
 All warmup complete: 2
Channel 0 Bank busy for read cycles: 0
Channel 0 Bank busy for write cycles: 0
Channel 0
Rank 0
0banks busy for read cycles: 319009065
0banks busy for write cycles: 16435
1banks busy for read cycles: 3095084
1banks busy for write cycles: 2251540
2banks busy for read cycles: 222619
2banks busy for write cycles: 164466
3banks busy for read cycles: 40350
3banks busy for write cycles: 22427
4banks busy for read cycles: 6341
4banks busy for write cycles: 2496
5banks busy for read cycles: 9527
5banks busy for write cycles: 903
6banks busy for read cycles: 42722
6banks busy for write cycles: 35022
7banks busy for read cycles: 8485
7banks busy for write cycles: 7281
8banks busy for read cycles: 5644
8banks busy for write cycles: 3861

CPU 0 Branch Prediction Accuracy: 99.9153% MPKI: 0.08793 Average ROB Occupancy at Mispredict: 36.1209
Branch types
NOT_BRANCH: 167735285 83.8676%
BRANCH_DIRECT_JUMP: 1659519 0.829759%
BRANCH_INDIRECT: 339627 0.169813%
BRANCH_CONDITIONAL: 20769341 10.3847%
BRANCH_DIRECT_CALL: 4747936 2.37397%
BRANCH_INDIRECT_CALL: 0 0%
BRANCH_RETURN: 4747938 2.37397%
BRANCH_OTHER: 0 0%

DRAM PAGES: 1048576
Allocated PAGES: 870
