526208 bits of metadata so far, 405638 left out of 526336 total budget
table size is 13521 bits, 2253 entries for 5 bit, 1931 entries for 6 bit
526208 total bits (64.23KB)

*** ChampSim Multicore Out-of-Order Simulator ***

Warmup Instructions: 50000000
Simulation Instructions: 200000000
Number of CPUs: 1
LLC sets: 2048
LLC ways: 16
Off-chip DRAM Size: 4096 MB Channels: 1 Width: 64-bit Data Rate: 6400 MT/s
argv[0]: ./ChampSim/Berti/bin/multiperspective_perceptron-no-vberti-no-no-no-no-no-lru-lru-lru-srrip-drrip-lru-lru-lru-1core-no
argv[1]: -warmup_instructions
argv[2]: 50000000
argv[3]: -simulation_instructions
argv[4]: 200000000
argv[5]: -traces
argv[6]: traces/spec2k17_ten/641.leela_s-1083B.champsimtrace.xz
CPU 0 runs traces/spec2k17_ten/641.leela_s-1083B.champsimtrace.xz
.xz
CPU 0 Multiperspective perceptron branch predictor
BTB has LRU replacement policy
ITLB has LRU replacement policy
DTLB has LRU replacement policy
STLB has LRU replacement policy
L1I has LRU replacement policy
History Sets: 8
History Ways: 16
BERTI Size: 16
BERTI Stride Size: 16
L1D has LRU replacement policy
Initialize SRRIP state for L2C
Initialize DRRIP state for LLC
Heartbeat CPU 0 instructions: 10000000 cycles: 3152108 heartbeat IPC: 3.17248 cumulative IPC: 3.17248 (Simulation time: 0 hr 8 min 6 sec) 
Heartbeat CPU 0 instructions: 20000000 cycles: 6313393 heartbeat IPC: 3.16327 cumulative IPC: 3.16787 (Simulation time: 0 hr 9 min 42 sec) 
Heartbeat CPU 0 instructions: 30000003 cycles: 9485669 heartbeat IPC: 3.15231 cumulative IPC: 3.16267 (Simulation time: 0 hr 11 min 32 sec) 
Heartbeat CPU 0 instructions: 40000003 cycles: 12643116 heartbeat IPC: 3.16712 cumulative IPC: 3.16378 (Simulation time: 0 hr 13 min 11 sec) 
Heartbeat CPU 0 instructions: 50000003 cycles: 15799612 heartbeat IPC: 3.16807 cumulative IPC: 3.16463 (Simulation time: 0 hr 19 min 46 sec) 

Warmup complete CPU 0 instructions: 50000003 cycles: 15799612 (Simulation time: 0 hr 19 min 46 sec) 

Heartbeat CPU 0 instructions: 60000002 cycles: 42259094 heartbeat IPC: 0.377936 cumulative IPC: 0.377936 (Simulation time: 0 hr 26 min 7 sec) 
Heartbeat CPU 0 instructions: 70000002 cycles: 69007439 heartbeat IPC: 0.373855 cumulative IPC: 0.375885 (Simulation time: 0 hr 31 min 48 sec) 
Heartbeat CPU 0 instructions: 80000000 cycles: 95410814 heartbeat IPC: 0.378739 cumulative IPC: 0.376831 (Simulation time: 0 hr 37 min 39 sec) 
Heartbeat CPU 0 instructions: 90000003 cycles: 122548206 heartbeat IPC: 0.368495 cumulative IPC: 0.374712 (Simulation time: 0 hr 44 min 0 sec) 
Heartbeat CPU 0 instructions: 100000002 cycles: 149309739 heartbeat IPC: 0.373671 cumulative IPC: 0.374503 (Simulation time: 0 hr 50 min 8 sec) 
Heartbeat CPU 0 instructions: 110000000 cycles: 175585977 heartbeat IPC: 0.380572 cumulative IPC: 0.375501 (Simulation time: 0 hr 56 min 43 sec) 
Heartbeat CPU 0 instructions: 120000000 cycles: 201773244 heartbeat IPC: 0.381865 cumulative IPC: 0.376397 (Simulation time: 1 hr 1 min 43 sec) 
Heartbeat CPU 0 instructions: 130000001 cycles: 228347191 heartbeat IPC: 0.376308 cumulative IPC: 0.376386 (Simulation time: 1 hr 7 min 12 sec) 
Heartbeat CPU 0 instructions: 140000000 cycles: 255011037 heartbeat IPC: 0.37504 cumulative IPC: 0.376236 (Simulation time: 1 hr 13 min 6 sec) 
Heartbeat CPU 0 instructions: 150000000 cycles: 281396833 heartbeat IPC: 0.378992 cumulative IPC: 0.37651 (Simulation time: 1 hr 19 min 2 sec) 
Heartbeat CPU 0 instructions: 160000000 cycles: 307529109 heartbeat IPC: 0.382669 cumulative IPC: 0.377062 (Simulation time: 1 hr 24 min 27 sec) 
Heartbeat CPU 0 instructions: 170000001 cycles: 333796367 heartbeat IPC: 0.380702 cumulative IPC: 0.377362 (Simulation time: 1 hr 28 min 57 sec) 
Heartbeat CPU 0 instructions: 180000000 cycles: 360295550 heartbeat IPC: 0.37737 cumulative IPC: 0.377363 (Simulation time: 1 hr 32 min 44 sec) 
Heartbeat CPU 0 instructions: 190000000 cycles: 386649638 heartbeat IPC: 0.379448 cumulative IPC: 0.377511 (Simulation time: 1 hr 35 min 38 sec) 
Heartbeat CPU 0 instructions: 200000001 cycles: 413133726 heartbeat IPC: 0.377585 cumulative IPC: 0.377516 (Simulation time: 1 hr 38 min 33 sec) 
Heartbeat CPU 0 instructions: 210000003 cycles: 440085839 heartbeat IPC: 0.371029 cumulative IPC: 0.377104 (Simulation time: 1 hr 42 min 2 sec) 
Heartbeat CPU 0 instructions: 220000000 cycles: 466925892 heartbeat IPC: 0.372577 cumulative IPC: 0.376835 (Simulation time: 1 hr 44 min 46 sec) 
Heartbeat CPU 0 instructions: 230000000 cycles: 493832828 heartbeat IPC: 0.371651 cumulative IPC: 0.376543 (Simulation time: 1 hr 47 min 10 sec) 
Heartbeat CPU 0 instructions: 240000000 cycles: 520316802 heartbeat IPC: 0.377587 cumulative IPC: 0.376598 (Simulation time: 1 hr 49 min 6 sec) 
Heartbeat CPU 0 instructions: 250000000 cycles: 578929372 heartbeat IPC: 0.170612 cumulative IPC: 0.355158 (Simulation time: 1 hr 53 min 34 sec) 
Finished CPU 0 instructions: 200000000 cycles: 563129811 cumulative IPC: 0.355158 (Simulation time: 1 hr 53 min 34 sec) 

ChampSim completed all CPUs

Region of Interest Statistics

CPU 0 cumulative IPC: 0.355158 instructions: 200000000 cycles: 563129811
ITLB TOTAL     ACCESS:   36689593  HIT:   36689345  MISS:        248  HIT %:    99.9993  MISS %: 0.000675941   MPKI: 0.00124
ITLB LOAD TRANSLATION ACCESS:   36689593  HIT:   36689345  MISS:        248  HIT %:    99.9993  MISS %: 0.000675941   MPKI: 0.00124
ITLB PREFETCH  REQUESTED:          0  ISSUED:          0  USEFUL:          0  USELESS:          0
ITLB USEFUL LOAD PREFETCHES:          0 PREFETCH ISSUED TO LOWER LEVEL:          0  ACCURACY: -nan
ITLB TIMELY PREFETCHES:          0 LATE PREFETCHES: 0 DROPPED PREFETCHES: 0
ITLB PREFETCHES SAME FILL-ORIGIN LEVEL: 0 DIFFERENT FILL-ORIGIN LEVEL: 0
ITLB AVERAGE MISS LATENCY: 131.956 cycles
ITLB RQ	ACCESS:   41652350	FORWARD:          0	MERGED:    4962685	TO_CACHE:   36689665

DTLB TOTAL     ACCESS:   59465584  HIT:   59361720  MISS:     103864  HIT %:    99.8253  MISS %:   0.174662   MPKI: 0.51932
DTLB LOAD TRANSLATION ACCESS:   59465584  HIT:   59361720  MISS:     103864  HIT %:    99.8253  MISS %:   0.174662   MPKI: 0.51932
DTLB PREFETCH  REQUESTED:          0  ISSUED:          0  USEFUL:          0  USELESS:          0
DTLB USEFUL LOAD PREFETCHES:          0 PREFETCH ISSUED TO LOWER LEVEL:          0  ACCURACY: -nan
DTLB TIMELY PREFETCHES:          0 LATE PREFETCHES: 0 DROPPED PREFETCHES: 0
DTLB PREFETCHES SAME FILL-ORIGIN LEVEL: 0 DIFFERENT FILL-ORIGIN LEVEL: 0
DTLB AVERAGE MISS LATENCY: 13.1145 cycles
DTLB RQ	ACCESS:   67333267	FORWARD:          0	MERGED:    7851956	TO_CACHE:   59481311

STLB TOTAL     ACCESS:    3499570  HIT:    3493368  MISS:       6202  HIT %:    99.8228  MISS %:   0.177222   MPKI: 0.03101
STLB LOAD TRANSLATION ACCESS:     104112  HIT:      99723  MISS:       4389  HIT %:    95.7843  MISS %:    4.21565   MPKI: 0.021945
STLB TRANSLATION FROM L1D PREFETCHER ACCESS:    3395458  HIT:    3393645  MISS:       1813  HIT %:    99.9466  MISS %:  0.0533949   MPKI: 0.009065
STLB PREFETCH  REQUESTED:          0  ISSUED:          0  USEFUL:       1798  USELESS:          9
STLB USEFUL LOAD PREFETCHES:       1798 PREFETCH ISSUED TO LOWER LEVEL:          0  ACCURACY: inf
STLB TIMELY PREFETCHES:       1798 LATE PREFETCHES: 360 DROPPED PREFETCHES: 27414
STLB PREFETCHES SAME FILL-ORIGIN LEVEL: 0 DIFFERENT FILL-ORIGIN LEVEL: 0
STLB AVERAGE MISS LATENCY: 94.4984 cycles
STLB RQ	ACCESS:   22447797	FORWARD:          0	MERGED:   18911320	TO_CACHE:    3536477

STLB Hit, L1D data hit: 0
STLB Hit, L2C data hit: 0
STLB Hit, LLC data hit: 0
STLB Hit, LLC data miss: 0
STLB STLB hints to L2: 0
L1D TOTAL     ACCESS:   83961226  HIT:   82677862  MISS:    1283364  HIT %:    98.4715  MISS %:    1.52852   MPKI: 6.41682
L1D LOAD      ACCESS:   42054689  HIT:   41630074  MISS:     424615  HIT %:    98.9903  MISS %:    1.00967   MPKI: 2.12308
L1D RFO       ACCESS:   23052199  HIT:   22621804  MISS:     430395  HIT %:     98.133  MISS %:    1.86705   MPKI: 2.15198
L1D PREFETCH  ACCESS:   18854338  HIT:   18425984  MISS:     428354  HIT %:    97.7281  MISS %:    2.27191   MPKI: 2.14177
L1D PREFETCH  REQUESTED:   45782306  ISSUED:   45764222  USEFUL:     405494  USELESS:      22854
L1D USEFUL LOAD PREFETCHES:     405494 PREFETCH ISSUED TO LOWER LEVEL:    2212052  ACCURACY: 18.3311
L1D TIMELY PREFETCHES:     405494 LATE PREFETCHES: 4373 DROPPED PREFETCHES: 84226
L1D PREFETCHES SAME FILL-ORIGIN LEVEL: 432733 DIFFERENT FILL-ORIGIN LEVEL: 1779319
L1D AVERAGE MISS LATENCY: 126.936 cycles
L1D RQ	ACCESS:   53579425	FORWARD:          0	MERGED:    9435282	TO_CACHE:   42076808
L1D WQ	ACCESS:   25679663	FORWARD:    2067338	MERGED:     423204	TO_CACHE:   25256459
L1D PQ	ACCESS:   23420537	FORWARD:          0	MERGED:    1076849	TO_CACHE:   22343685

L1D UNIQUE REGIONS ACCESSED: 0
L1D REGIONS CONFLICTS: 0
L1D Cross Page Prefetch Requests: 2394955
L1D Same Page Prefetch Requests: 21990896
L1D ROI Sum of L1D PQ occupancy: 329926822
L1D PREFETCHES PUSHED FROM L2C: 0
L1I TOTAL     ACCESS:   41646319  HIT:   41630892  MISS:      15427  HIT %:     99.963  MISS %:  0.0370429   MPKI: 0.077135
L1I LOAD      ACCESS:   41646319  HIT:   41630892  MISS:      15427  HIT %:     99.963  MISS %:  0.0370429   MPKI: 0.077135
L1I PREFETCH  REQUESTED:          0  ISSUED:          0  USEFUL:          0  USELESS:          0
L1I USEFUL LOAD PREFETCHES:          0 PREFETCH ISSUED TO LOWER LEVEL:          0  ACCURACY: -nan
L1I TIMELY PREFETCHES:          0 LATE PREFETCHES: 0 DROPPED PREFETCHES: 0
L1I PREFETCHES SAME FILL-ORIGIN LEVEL: 0 DIFFERENT FILL-ORIGIN LEVEL: 0
L1I AVERAGE MISS LATENCY: 46.3789 cycles
L1I RQ	ACCESS:   58847620	FORWARD:          0	MERGED:   17195270	TO_CACHE:   41652350

BTB TOTAL     ACCESS:   31329121  HIT:   29031204  MISS:    2297917  HIT %:    92.6652  MISS %:    7.33476   MPKI: 11.4896
BTB BRANCH_DIRECT_JUMP	ACCESS:    1094608  HIT:    1094408  MISS:        200
BTB BRANCH_INDIRECT	ACCESS:       6209  HIT:       4182  MISS:       2027
BTB BRANCH_CONDITIONAL	ACCESS:   18688882  HIT:   18687006  MISS:       1876
BTB BRANCH_DIRECT_CALL	ACCESS:    5769438  HIT:    5768610  MISS:        828
BTB BRANCH_INDIRECT_CALL	ACCESS:        272  HIT:        218  MISS:         54
BTB BRANCH_RETURN	ACCESS:    5769712  HIT:    3476780  MISS:    2292932
BTB BRANCH_OTHER ACCESS:          0  HIT:          0  MISS:          0

L2C TOTAL     ACCESS:    3256087  HIT:    2488332  MISS:     767755  HIT %:    76.4209  MISS %:    23.5791   MPKI: 3.83878
L2C LOAD      ACCESS:     435664  HIT:     379136  MISS:      56528  HIT %:    87.0249  MISS %:    12.9751   MPKI: 0.28264
L2C DATA LOAD MPKI: 0.26922
L2C INSTRUCTION LOAD MPKI: 0.01342
L2C RFO       ACCESS:     430383  HIT:      64713  MISS:     365670  HIT %:    15.0361  MISS %:    84.9639   MPKI: 1.82835
L2C PREFETCH  ACCESS:    1864536  HIT:    1523082  MISS:     341454  HIT %:    81.6869  MISS %:    18.3131   MPKI: 1.70727
L2C DATA PREFETCH MPKI: 1.70727
L2C INSTRUCTION PREFETCH MPKI: 0
L2C WRITEBACK ACCESS:     491538  HIT:     489159  MISS:       2379  HIT %:     99.516  MISS %:   0.483991   MPKI: 0.011895
L2C LOAD TRANSLATION ACCESS:       4379  HIT:       3174  MISS:       1205  HIT %:    72.4823  MISS %:    27.5177   MPKI: 0.006025
L2C TRANSLATION FROM L1D PREFETCHER ACCESS:      29587  HIT:      29068  MISS:        519  HIT %:    98.2459  MISS %:    1.75415   MPKI: 0.002595
L2C PREFETCH  REQUESTED:          0  ISSUED:          0  USEFUL:      16337  USELESS:     325732
L2C USEFUL LOAD PREFETCHES:      16337 PREFETCH ISSUED TO LOWER LEVEL:     346583  ACCURACY: 4.71373
L2C TIMELY PREFETCHES:      16337 LATE PREFETCHES: 5128 DROPPED PREFETCHES: 0
L2C PREFETCHES SAME FILL-ORIGIN LEVEL: 97490 DIFFERENT FILL-ORIGIN LEVEL: 0
L2C AVERAGE MISS LATENCY: 212.514 cycles
L2C RQ	ACCESS:     900031	FORWARD:          0	MERGED:          0	TO_CACHE:     900015
L2C WQ	ACCESS:     491538	FORWARD:         16	MERGED:          0	TO_CACHE:     491538
L2C PQ	ACCESS:    2211131	FORWARD:          0	MERGED:       1137	TO_CACHE:    2209994

L2C Instructions Evicting Data 2600
L2C Translations Evicting Data 1686
L2C Data Evicting Data 754763
L2C Instructions Evicting Instructions 76
L2C Translations Evicting Instructions 13
L2C Data Evicting Instructions 2855
L2C Instructions Evicting Translations 7
L2C Translations Evicting Translations 0
L2C Data Evicting Translations 1849
L2C Dense regions hint from L2: 0
PSCL5 TOTAL     ACCESS:      33966  HIT:      33966  MISS:          0  HIT %:        100  MISS %:          0   MPKI: 0
PSCL5 LOAD TRANSLATION ACCESS:       4379  HIT:       4379  MISS:          0  HIT %:        100  MISS %:          0   MPKI: 0
PSCL5 TRANSLATION FROM L1D PREFETCHER ACCESS:      29587  HIT:      29587  MISS:          0  HIT %:        100  MISS %:          0   MPKI: 0
PSCL5 PREFETCH  REQUESTED:          0  ISSUED:          0  USEFUL:          0  USELESS:          0
PSCL5 USEFUL LOAD PREFETCHES:          0 PREFETCH ISSUED TO LOWER LEVEL:          0  ACCURACY: -nan
PSCL5 TIMELY PREFETCHES:          0 LATE PREFETCHES: 0 DROPPED PREFETCHES: 0
PSCL5 PREFETCHES SAME FILL-ORIGIN LEVEL: 0 DIFFERENT FILL-ORIGIN LEVEL: 0

PSCL4 TOTAL     ACCESS:      33966  HIT:      33966  MISS:          0  HIT %:        100  MISS %:          0   MPKI: 0
PSCL4 LOAD TRANSLATION ACCESS:       4379  HIT:       4379  MISS:          0  HIT %:        100  MISS %:          0   MPKI: 0
PSCL4 TRANSLATION FROM L1D PREFETCHER ACCESS:      29587  HIT:      29587  MISS:          0  HIT %:        100  MISS %:          0   MPKI: 0
PSCL4 PREFETCH  REQUESTED:          0  ISSUED:          0  USEFUL:          0  USELESS:          0
PSCL4 USEFUL LOAD PREFETCHES:          0 PREFETCH ISSUED TO LOWER LEVEL:          0  ACCURACY: -nan
PSCL4 TIMELY PREFETCHES:          0 LATE PREFETCHES: 0 DROPPED PREFETCHES: 0
PSCL4 PREFETCHES SAME FILL-ORIGIN LEVEL: 0 DIFFERENT FILL-ORIGIN LEVEL: 0

PSCL3 TOTAL     ACCESS:      33966  HIT:      33966  MISS:          0  HIT %:        100  MISS %:          0   MPKI: 0
PSCL3 LOAD TRANSLATION ACCESS:       4379  HIT:       4379  MISS:          0  HIT %:        100  MISS %:          0   MPKI: 0
PSCL3 TRANSLATION FROM L1D PREFETCHER ACCESS:      29587  HIT:      29587  MISS:          0  HIT %:        100  MISS %:          0   MPKI: 0
PSCL3 PREFETCH  REQUESTED:          0  ISSUED:          0  USEFUL:          0  USELESS:          0
PSCL3 USEFUL LOAD PREFETCHES:          0 PREFETCH ISSUED TO LOWER LEVEL:          0  ACCURACY: -nan
PSCL3 TIMELY PREFETCHES:          0 LATE PREFETCHES: 0 DROPPED PREFETCHES: 0
PSCL3 PREFETCHES SAME FILL-ORIGIN LEVEL: 0 DIFFERENT FILL-ORIGIN LEVEL: 0

PSCL2 TOTAL     ACCESS:      33966  HIT:      33964  MISS:          2  HIT %:    99.9941  MISS %: 0.00588824   MPKI: 1e-05
PSCL2 LOAD TRANSLATION ACCESS:       4379  HIT:       4377  MISS:          2  HIT %:    99.9543  MISS %:  0.0456725   MPKI: 1e-05
PSCL2 TRANSLATION FROM L1D PREFETCHER ACCESS:      29587  HIT:      29587  MISS:          0  HIT %:        100  MISS %:          0   MPKI: 0
PSCL2 PREFETCH  REQUESTED:          0  ISSUED:          0  USEFUL:          0  USELESS:          0
PSCL2 USEFUL LOAD PREFETCHES:          0 PREFETCH ISSUED TO LOWER LEVEL:          0  ACCURACY: -nan
PSCL2 TIMELY PREFETCHES:          0 LATE PREFETCHES: 0 DROPPED PREFETCHES: 0
PSCL2 PREFETCHES SAME FILL-ORIGIN LEVEL: 0 DIFFERENT FILL-ORIGIN LEVEL: 0

LLC TOTAL     ACCESS:    1136600  HIT:     276566  MISS:     860034  HIT %:    24.3327  MISS %:    75.6673   MPKI: 4.30017
LLC LOAD      ACCESS:      51400  HIT:       8962  MISS:      42438  HIT %:    17.4358  MISS %:    82.5642   MPKI: 0.21219
LLC RFO       ACCESS:     365670  HIT:      38016  MISS:     327654  HIT %:    10.3963  MISS %:    89.6037   MPKI: 1.63827
LLC PREFETCH  ACCESS:     346582  HIT:      44443  MISS:     302139  HIT %:    12.8232  MISS %:    87.1768   MPKI: 1.51069
LLC WRITEBACK ACCESS:     371224  HIT:     184881  MISS:     186343  HIT %:    49.8031  MISS %:    50.1969   MPKI: 0.931715
LLC LOAD TRANSLATION ACCESS:       1205  HIT:        207  MISS:        998  HIT %:    17.1784  MISS %:    82.8216   MPKI: 0.00499
LLC TRANSLATION FROM L1D PREFETCHER ACCESS:        519  HIT:         57  MISS:        462  HIT %:    10.9827  MISS %:    89.0173   MPKI: 0.00231
LLC PREFETCH  REQUESTED:          0  ISSUED:          0  USEFUL:       2158  USELESS:     302838
LLC USEFUL LOAD PREFETCHES:       2158 PREFETCH ISSUED TO LOWER LEVEL:     302139  ACCURACY: 0.714241
LLC TIMELY PREFETCHES:       2158 LATE PREFETCHES: 0 DROPPED PREFETCHES: 0
LLC PREFETCHES SAME FILL-ORIGIN LEVEL: 0 DIFFERENT FILL-ORIGIN LEVEL: 0
LLC AVERAGE MISS LATENCY: 163.454 cycles
LLC RQ	ACCESS:     418796	FORWARD:          0	MERGED:          0	TO_CACHE:     418796
LLC WQ	ACCESS:     371224	FORWARD:          0	MERGED:          0	TO_CACHE:     371224
LLC PQ	ACCESS:     346583	FORWARD:          0	MERGED:          0	TO_CACHE:     346583

LLC Dense regions hint to LLC: 0

RAW hits: 1850889
Loads Generated: 55430315
Loads sent to L1D: 53579425
Stores Generated: 25679661
Stores sent to L1D: 25679663
Major fault: 0 Minor fault: 2275
Allocated PAGES: 2275

DRAM Statistics
 CHANNEL 0
 RQ ROW_BUFFER_HIT:     139684  ROW_BUFFER_MISS:     533810
 DBUS_CONGESTED:        115
 WQ ROW_BUFFER_HIT:      49946  ROW_BUFFER_MISS:     251399  FULL:          0

 AVG_CONGESTED_CYCLE: 5
 All warmup complete: 2
Channel 0 Bank busy for read cycles: 0
Channel 0 Bank busy for write cycles: 0
Channel 0
Rank 0
0banks busy for read cycles: 516283541
0banks busy for write cycles: 2330
1banks busy for read cycles: 10399460
1banks busy for write cycles: 406986
2banks busy for read cycles: 16015605
2banks busy for write cycles: 237124
3banks busy for read cycles: 5633060
3banks busy for write cycles: 184887
4banks busy for read cycles: 3435547
4banks busy for write cycles: 161442
5banks busy for read cycles: 835356
5banks busy for write cycles: 169083
6banks busy for read cycles: 453318
6banks busy for write cycles: 196419
7banks busy for read cycles: 405352
7banks busy for write cycles: 643923
8banks busy for read cycles: 725034
8banks busy for write cycles: 6941345

CPU 0 Branch Prediction Accuracy: 90.014% MPKI: 10.2937 Average ROB Occupancy at Mispredict: 23.4796
Branch types
NOT_BRANCH: 166743419 83.3717%
BRANCH_DIRECT_JUMP: 1094608 0.547304%
BRANCH_INDIRECT: 6209 0.0031045%
BRANCH_CONDITIONAL: 20616346 10.3082%
BRANCH_DIRECT_CALL: 5769438 2.88472%
BRANCH_INDIRECT_CALL: 272 0.000136%
BRANCH_RETURN: 5769712 2.88486%
BRANCH_OTHER: 0 0%

DRAM PAGES: 1048576
Allocated PAGES: 2275
