526208 bits of metadata so far, 405638 left out of 526336 total budget
table size is 13521 bits, 2253 entries for 5 bit, 1931 entries for 6 bit
526208 total bits (64.23KB)

*** ChampSim Multicore Out-of-Order Simulator ***

Warmup Instructions: 50000000
Simulation Instructions: 200000000
Number of CPUs: 1
LLC sets: 2048
LLC ways: 16
Off-chip DRAM Size: 4096 MB Channels: 1 Width: 64-bit Data Rate: 6400 MT/s
argv[0]: ./ChampSim/Berti/bin/multiperspective_perceptron-no-vberti-no-no-no-no-no-lru-lru-lru-srrip-drrip-lru-lru-lru-1core-no
argv[1]: -warmup_instructions
argv[2]: 50000000
argv[3]: -simulation_instructions
argv[4]: 200000000
argv[5]: -traces
argv[6]: traces/spec2k17_ten/641.leela_s-149B.champsimtrace.xz
CPU 0 runs traces/spec2k17_ten/641.leela_s-149B.champsimtrace.xz
.xz
CPU 0 Multiperspective perceptron branch predictor
BTB has LRU replacement policy
ITLB has LRU replacement policy
DTLB has LRU replacement policy
STLB has LRU replacement policy
L1I has LRU replacement policy
History Sets: 8
History Ways: 16
BERTI Size: 16
BERTI Stride Size: 16
L1D has LRU replacement policy
Initialize SRRIP state for L2C
Initialize DRRIP state for LLC
Heartbeat CPU 0 instructions: 10000002 cycles: 3153768 heartbeat IPC: 3.17081 cumulative IPC: 3.17081 (Simulation time: 0 hr 3 min 29 sec) 
Heartbeat CPU 0 instructions: 20000002 cycles: 6880624 heartbeat IPC: 2.68323 cumulative IPC: 2.90671 (Simulation time: 0 hr 12 min 10 sec) 
Heartbeat CPU 0 instructions: 30000003 cycles: 10198143 heartbeat IPC: 3.0143 cumulative IPC: 2.94171 (Simulation time: 0 hr 19 min 23 sec) 
Heartbeat CPU 0 instructions: 40000000 cycles: 13429082 heartbeat IPC: 3.09507 cumulative IPC: 2.97861 (Simulation time: 0 hr 25 min 21 sec) 
Heartbeat CPU 0 instructions: 50000003 cycles: 16660815 heartbeat IPC: 3.09432 cumulative IPC: 3.00105 (Simulation time: 0 hr 31 min 2 sec) 

Warmup complete CPU 0 instructions: 50000003 cycles: 16660815 (Simulation time: 0 hr 31 min 2 sec) 

Heartbeat CPU 0 instructions: 60000001 cycles: 43834224 heartbeat IPC: 0.368007 cumulative IPC: 0.368007 (Simulation time: 0 hr 37 min 31 sec) 
Heartbeat CPU 0 instructions: 70000000 cycles: 70953915 heartbeat IPC: 0.368736 cumulative IPC: 0.368371 (Simulation time: 0 hr 43 min 29 sec) 
Heartbeat CPU 0 instructions: 80000000 cycles: 98058429 heartbeat IPC: 0.368942 cumulative IPC: 0.368561 (Simulation time: 0 hr 49 min 5 sec) 
Heartbeat CPU 0 instructions: 90000000 cycles: 125094858 heartbeat IPC: 0.369871 cumulative IPC: 0.368888 (Simulation time: 0 hr 55 min 22 sec) 
Heartbeat CPU 0 instructions: 100000001 cycles: 152022425 heartbeat IPC: 0.371367 cumulative IPC: 0.369381 (Simulation time: 1 hr 1 min 18 sec) 
Heartbeat CPU 0 instructions: 110000000 cycles: 179147169 heartbeat IPC: 0.368667 cumulative IPC: 0.369262 (Simulation time: 1 hr 7 min 42 sec) 
Heartbeat CPU 0 instructions: 120000001 cycles: 206065091 heartbeat IPC: 0.3715 cumulative IPC: 0.36958 (Simulation time: 1 hr 12 min 58 sec) 
Heartbeat CPU 0 instructions: 130000001 cycles: 232989515 heartbeat IPC: 0.37141 cumulative IPC: 0.369808 (Simulation time: 1 hr 19 min 4 sec) 
Heartbeat CPU 0 instructions: 140000000 cycles: 259952346 heartbeat IPC: 0.370881 cumulative IPC: 0.369927 (Simulation time: 1 hr 24 min 50 sec) 
Heartbeat CPU 0 instructions: 150000000 cycles: 286729088 heartbeat IPC: 0.373458 cumulative IPC: 0.370277 (Simulation time: 1 hr 30 min 4 sec) 
Heartbeat CPU 0 instructions: 160000003 cycles: 313504699 heartbeat IPC: 0.373474 cumulative IPC: 0.370565 (Simulation time: 1 hr 34 min 47 sec) 
Heartbeat CPU 0 instructions: 170000003 cycles: 340312059 heartbeat IPC: 0.373032 cumulative IPC: 0.370769 (Simulation time: 1 hr 37 min 58 sec) 
Heartbeat CPU 0 instructions: 180000003 cycles: 367290379 heartbeat IPC: 0.370668 cumulative IPC: 0.370762 (Simulation time: 1 hr 40 min 48 sec) 
Heartbeat CPU 0 instructions: 190000000 cycles: 393996352 heartbeat IPC: 0.374448 cumulative IPC: 0.371023 (Simulation time: 1 hr 43 min 54 sec) 
Heartbeat CPU 0 instructions: 200000003 cycles: 420708263 heartbeat IPC: 0.374365 cumulative IPC: 0.371244 (Simulation time: 1 hr 46 min 26 sec) 
Heartbeat CPU 0 instructions: 210000000 cycles: 447296571 heartbeat IPC: 0.376105 cumulative IPC: 0.371544 (Simulation time: 1 hr 48 min 45 sec) 
Heartbeat CPU 0 instructions: 220000000 cycles: 473980942 heartbeat IPC: 0.374751 cumulative IPC: 0.371731 (Simulation time: 1 hr 50 min 49 sec) 
Heartbeat CPU 0 instructions: 230000000 cycles: 500665160 heartbeat IPC: 0.374753 cumulative IPC: 0.371897 (Simulation time: 1 hr 52 min 33 sec) 
Heartbeat CPU 0 instructions: 240000000 cycles: 527242669 heartbeat IPC: 0.376258 cumulative IPC: 0.372124 (Simulation time: 1 hr 54 min 2 sec) 
Heartbeat CPU 0 instructions: 250000000 cycles: 553983798 heartbeat IPC: 0.373956 cumulative IPC: 0.372216 (Simulation time: 1 hr 55 min 24 sec) 
Finished CPU 0 instructions: 200000000 cycles: 537323021 cumulative IPC: 0.372216 (Simulation time: 1 hr 55 min 24 sec) 

ChampSim completed all CPUs

Region of Interest Statistics

CPU 0 cumulative IPC: 0.372216 instructions: 200000000 cycles: 537323021
ITLB TOTAL     ACCESS:   35131782  HIT:   35131782  MISS:          0  HIT %:        100  MISS %:          0   MPKI: 0
ITLB LOAD TRANSLATION ACCESS:   35131782  HIT:   35131782  MISS:          0  HIT %:        100  MISS %:          0   MPKI: 0
ITLB PREFETCH  REQUESTED:          0  ISSUED:          0  USEFUL:          0  USELESS:          0
ITLB USEFUL LOAD PREFETCHES:          0 PREFETCH ISSUED TO LOWER LEVEL:          0  ACCURACY: -nan
ITLB TIMELY PREFETCHES:          0 LATE PREFETCHES: 0 DROPPED PREFETCHES: 0
ITLB PREFETCHES SAME FILL-ORIGIN LEVEL: 0 DIFFERENT FILL-ORIGIN LEVEL: 0
ITLB AVERAGE MISS LATENCY: -nan cycles
ITLB RQ	ACCESS:   40241811	FORWARD:          0	MERGED:    5110030	TO_CACHE:   35131781

DTLB TOTAL     ACCESS:   55407159  HIT:   55322258  MISS:      84901  HIT %:    99.8468  MISS %:   0.153231   MPKI: 0.424505
DTLB LOAD TRANSLATION ACCESS:   55407159  HIT:   55322258  MISS:      84901  HIT %:    99.8468  MISS %:   0.153231   MPKI: 0.424505
DTLB PREFETCH  REQUESTED:          0  ISSUED:          0  USEFUL:          0  USELESS:          0
DTLB USEFUL LOAD PREFETCHES:          0 PREFETCH ISSUED TO LOWER LEVEL:          0  ACCURACY: -nan
DTLB TIMELY PREFETCHES:          0 LATE PREFETCHES: 0 DROPPED PREFETCHES: 0
DTLB PREFETCHES SAME FILL-ORIGIN LEVEL: 0 DIFFERENT FILL-ORIGIN LEVEL: 0
DTLB AVERAGE MISS LATENCY: 9.3552 cycles
DTLB RQ	ACCESS:   63004394	FORWARD:          0	MERGED:    7595316	TO_CACHE:   55409078

STLB TOTAL     ACCESS:    1260693  HIT:    1260371  MISS:        322  HIT %:    99.9745  MISS %:  0.0255415   MPKI: 0.00161
STLB LOAD TRANSLATION ACCESS:      84901  HIT:      84579  MISS:        322  HIT %:    99.6207  MISS %:   0.379265   MPKI: 0.00161
STLB TRANSLATION FROM L1D PREFETCHER ACCESS:    1175792  HIT:    1175792  MISS:          0  HIT %:        100  MISS %:          0   MPKI: 0
STLB PREFETCH  REQUESTED:          0  ISSUED:          0  USEFUL:          0  USELESS:          0
STLB USEFUL LOAD PREFETCHES:          0 PREFETCH ISSUED TO LOWER LEVEL:          0  ACCURACY: -nan
STLB TIMELY PREFETCHES:          0 LATE PREFETCHES: 0 DROPPED PREFETCHES: 11456
STLB PREFETCHES SAME FILL-ORIGIN LEVEL: 0 DIFFERENT FILL-ORIGIN LEVEL: 0
STLB AVERAGE MISS LATENCY: 131.149 cycles
STLB RQ	ACCESS:    5034264	FORWARD:          0	MERGED:    3761788	TO_CACHE:    1272476

STLB Hit, L1D data hit: 0
STLB Hit, L2C data hit: 0
STLB Hit, LLC data hit: 0
STLB Hit, LLC data miss: 0
STLB STLB hints to L2: 0
L1D TOTAL     ACCESS:   66347473  HIT:   66080042  MISS:     267431  HIT %:    99.5969  MISS %:   0.403076   MPKI: 1.33716
L1D LOAD      ACCESS:   39366913  HIT:   39164045  MISS:     202868  HIT %:    99.4847  MISS %:   0.515326   MPKI: 1.01434
L1D RFO       ACCESS:   23618863  HIT:   23581182  MISS:      37681  HIT %:    99.8405  MISS %:   0.159538   MPKI: 0.188405
L1D PREFETCH  ACCESS:    3361697  HIT:    3334815  MISS:      26882  HIT %:    99.2003  MISS %:   0.799656   MPKI: 0.13441
L1D PREFETCH  REQUESTED:   10137394  ISSUED:   10137393  USEFUL:      14411  USELESS:      12459
L1D USEFUL LOAD PREFETCHES:      14411 PREFETCH ISSUED TO LOWER LEVEL:    1600414  ACCURACY: 0.900455
L1D TIMELY PREFETCHES:      14411 LATE PREFETCHES: 63 DROPPED PREFETCHES: 13582
L1D PREFETCHES SAME FILL-ORIGIN LEVEL: 26945 DIFFERENT FILL-ORIGIN LEVEL: 1573469
L1D AVERAGE MISS LATENCY: 16.1612 cycles
L1D RQ	ACCESS:   52025165	FORWARD:          0	MERGED:   10451799	TO_CACHE:   39368610
L1D WQ	ACCESS:   24000937	FORWARD:    2204813	MERGED:     365153	TO_CACHE:   23635784
L1D PQ	ACCESS:    5188030	FORWARD:          0	MERGED:     238610	TO_CACHE:    4949363

L1D UNIQUE REGIONS ACCESSED: 0
L1D REGIONS CONFLICTS: 0
L1D Cross Page Prefetch Requests: 1134485
L1D Same Page Prefetch Requests: 8773653
L1D ROI Sum of L1D PQ occupancy: 70973395
L1D PREFETCHES PUSHED FROM L2C: 0
L1I TOTAL     ACCESS:   40223410  HIT:   40181548  MISS:      41862  HIT %:    99.8959  MISS %:   0.104074   MPKI: 0.20931
L1I LOAD      ACCESS:   40223410  HIT:   40181548  MISS:      41862  HIT %:    99.8959  MISS %:   0.104074   MPKI: 0.20931
L1I PREFETCH  REQUESTED:          0  ISSUED:          0  USEFUL:          0  USELESS:          0
L1I USEFUL LOAD PREFETCHES:          0 PREFETCH ISSUED TO LOWER LEVEL:          0  ACCURACY: -nan
L1I TIMELY PREFETCHES:          0 LATE PREFETCHES: 0 DROPPED PREFETCHES: 0
L1I PREFETCHES SAME FILL-ORIGIN LEVEL: 0 DIFFERENT FILL-ORIGIN LEVEL: 0
L1I AVERAGE MISS LATENCY: 14.0153 cycles
L1I RQ	ACCESS:   57238746	FORWARD:          0	MERGED:   16996935	TO_CACHE:   40241811

BTB TOTAL     ACCESS:   31355940  HIT:   29137042  MISS:    2218898  HIT %:    92.9235  MISS %:    7.07648   MPKI: 11.0945
BTB BRANCH_DIRECT_JUMP	ACCESS:    1150388  HIT:    1150314  MISS:         74
BTB BRANCH_INDIRECT	ACCESS:       4209  HIT:       4065  MISS:        144
BTB BRANCH_CONDITIONAL	ACCESS:   18692451  HIT:   18688527  MISS:       3924
BTB BRANCH_DIRECT_CALL	ACCESS:    5754446  HIT:    5752632  MISS:       1814
BTB BRANCH_INDIRECT_CALL	ACCESS:          0  HIT:          0  MISS:          0
BTB BRANCH_RETURN	ACCESS:    5754446  HIT:    3541504  MISS:    2212942
BTB BRANCH_OTHER ACCESS:          0  HIT:          0  MISS:          0

L2C TOTAL     ACCESS:    1949814  HIT:    1945090  MISS:       4724  HIT %:    99.7577  MISS %:    0.24228   MPKI: 0.02362
L2C LOAD      ACCESS:     244664  HIT:     242326  MISS:       2338  HIT %:    99.0444  MISS %:   0.955596   MPKI: 0.01169
L2C DATA LOAD MPKI: 0.011645
L2C INSTRUCTION LOAD MPKI: 4.5e-05
L2C RFO       ACCESS:      37680  HIT:      36726  MISS:        954  HIT %:    97.4682  MISS %:    2.53185   MPKI: 0.00477
L2C PREFETCH  ACCESS:    1600327  HIT:    1599053  MISS:       1274  HIT %:    99.9204  MISS %:  0.0796087   MPKI: 0.00637
L2C DATA PREFETCH MPKI: 0.00637
L2C INSTRUCTION PREFETCH MPKI: 0
L2C WRITEBACK ACCESS:      55365  HIT:      55326  MISS:         39  HIT %:    99.9296  MISS %:  0.0704416   MPKI: 0.000195
L2C LOAD TRANSLATION ACCESS:        322  HIT:        224  MISS:         98  HIT %:    69.5652  MISS %:    30.4348   MPKI: 0.00049
L2C TRANSLATION FROM L1D PREFETCHER ACCESS:      11456  HIT:      11435  MISS:         21  HIT %:    99.8167  MISS %:    0.18331   MPKI: 0.000105
L2C PREFETCH  REQUESTED:          0  ISSUED:          0  USEFUL:        131  USELESS:       1276
L2C USEFUL LOAD PREFETCHES:        131 PREFETCH ISSUED TO LOWER LEVEL:       1276  ACCURACY: 10.2665
L2C TIMELY PREFETCHES:        131 LATE PREFETCHES: 2 DROPPED PREFETCHES: 0
L2C PREFETCHES SAME FILL-ORIGIN LEVEL: 1127 DIFFERENT FILL-ORIGIN LEVEL: 0
L2C AVERAGE MISS LATENCY: 75.5345 cycles
L2C RQ	ACCESS:     294126	FORWARD:          0	MERGED:          0	TO_CACHE:     294122
L2C WQ	ACCESS:      55365	FORWARD:          4	MERGED:          0	TO_CACHE:      55365
L2C PQ	ACCESS:    1600414	FORWARD:          0	MERGED:         69	TO_CACHE:    1600345

L2C Instructions Evicting Data 9
L2C Translations Evicting Data 112
L2C Data Evicting Data 4373
L2C Instructions Evicting Instructions 0
L2C Translations Evicting Instructions 7
L2C Data Evicting Instructions 127
L2C Instructions Evicting Translations 0
L2C Translations Evicting Translations 0
L2C Data Evicting Translations 57
L2C Dense regions hint from L2: 0
PSCL5 TOTAL     ACCESS:      11778  HIT:      11778  MISS:          0  HIT %:        100  MISS %:          0   MPKI: 0
PSCL5 LOAD TRANSLATION ACCESS:        322  HIT:        322  MISS:          0  HIT %:        100  MISS %:          0   MPKI: 0
PSCL5 TRANSLATION FROM L1D PREFETCHER ACCESS:      11456  HIT:      11456  MISS:          0  HIT %:        100  MISS %:          0   MPKI: 0
PSCL5 PREFETCH  REQUESTED:          0  ISSUED:          0  USEFUL:          0  USELESS:          0
PSCL5 USEFUL LOAD PREFETCHES:          0 PREFETCH ISSUED TO LOWER LEVEL:          0  ACCURACY: -nan
PSCL5 TIMELY PREFETCHES:          0 LATE PREFETCHES: 0 DROPPED PREFETCHES: 0
PSCL5 PREFETCHES SAME FILL-ORIGIN LEVEL: 0 DIFFERENT FILL-ORIGIN LEVEL: 0

PSCL4 TOTAL     ACCESS:      11778  HIT:      11778  MISS:          0  HIT %:        100  MISS %:          0   MPKI: 0
PSCL4 LOAD TRANSLATION ACCESS:        322  HIT:        322  MISS:          0  HIT %:        100  MISS %:          0   MPKI: 0
PSCL4 TRANSLATION FROM L1D PREFETCHER ACCESS:      11456  HIT:      11456  MISS:          0  HIT %:        100  MISS %:          0   MPKI: 0
PSCL4 PREFETCH  REQUESTED:          0  ISSUED:          0  USEFUL:          0  USELESS:          0
PSCL4 USEFUL LOAD PREFETCHES:          0 PREFETCH ISSUED TO LOWER LEVEL:          0  ACCURACY: -nan
PSCL4 TIMELY PREFETCHES:          0 LATE PREFETCHES: 0 DROPPED PREFETCHES: 0
PSCL4 PREFETCHES SAME FILL-ORIGIN LEVEL: 0 DIFFERENT FILL-ORIGIN LEVEL: 0

PSCL3 TOTAL     ACCESS:      11778  HIT:      11778  MISS:          0  HIT %:        100  MISS %:          0   MPKI: 0
PSCL3 LOAD TRANSLATION ACCESS:        322  HIT:        322  MISS:          0  HIT %:        100  MISS %:          0   MPKI: 0
PSCL3 TRANSLATION FROM L1D PREFETCHER ACCESS:      11456  HIT:      11456  MISS:          0  HIT %:        100  MISS %:          0   MPKI: 0
PSCL3 PREFETCH  REQUESTED:          0  ISSUED:          0  USEFUL:          0  USELESS:          0
PSCL3 USEFUL LOAD PREFETCHES:          0 PREFETCH ISSUED TO LOWER LEVEL:          0  ACCURACY: -nan
PSCL3 TIMELY PREFETCHES:          0 LATE PREFETCHES: 0 DROPPED PREFETCHES: 0
PSCL3 PREFETCHES SAME FILL-ORIGIN LEVEL: 0 DIFFERENT FILL-ORIGIN LEVEL: 0

PSCL2 TOTAL     ACCESS:      11766  HIT:      11766  MISS:          0  HIT %:        100  MISS %:          0   MPKI: 0
PSCL2 LOAD TRANSLATION ACCESS:        322  HIT:        322  MISS:          0  HIT %:        100  MISS %:          0   MPKI: 0
PSCL2 TRANSLATION FROM L1D PREFETCHER ACCESS:      11444  HIT:      11444  MISS:          0  HIT %:        100  MISS %:          0   MPKI: 0
PSCL2 PREFETCH  REQUESTED:          0  ISSUED:          0  USEFUL:          0  USELESS:          0
PSCL2 USEFUL LOAD PREFETCHES:          0 PREFETCH ISSUED TO LOWER LEVEL:          0  ACCURACY: -nan
PSCL2 TIMELY PREFETCHES:          0 LATE PREFETCHES: 0 DROPPED PREFETCHES: 0
PSCL2 PREFETCHES SAME FILL-ORIGIN LEVEL: 0 DIFFERENT FILL-ORIGIN LEVEL: 0

LLC TOTAL     ACCESS:       7152  HIT:       5822  MISS:       1330  HIT %:    81.4038  MISS %:    18.5962   MPKI: 0.00665
LLC LOAD      ACCESS:       2336  HIT:       1139  MISS:       1197  HIT %:    48.7586  MISS %:    51.2414   MPKI: 0.005985
LLC RFO       ACCESS:        954  HIT:        948  MISS:          6  HIT %:    99.3711  MISS %:   0.628931   MPKI: 3e-05
LLC PREFETCH  ACCESS:       1276  HIT:       1182  MISS:         94  HIT %:    92.6332  MISS %:    7.36677   MPKI: 0.00047
LLC WRITEBACK ACCESS:       2467  HIT:       2464  MISS:          3  HIT %:    99.8784  MISS %:   0.121605   MPKI: 1.5e-05
LLC LOAD TRANSLATION ACCESS:         98  HIT:         76  MISS:         22  HIT %:     77.551  MISS %:     22.449   MPKI: 0.00011
LLC TRANSLATION FROM L1D PREFETCHER ACCESS:         21  HIT:         13  MISS:          8  HIT %:    61.9048  MISS %:    38.0952   MPKI: 4e-05
LLC PREFETCH  REQUESTED:          0  ISSUED:          0  USEFUL:        865  USELESS:        101
LLC USEFUL LOAD PREFETCHES:        865 PREFETCH ISSUED TO LOWER LEVEL:         94  ACCURACY: 920.213
LLC TIMELY PREFETCHES:        865 LATE PREFETCHES: 0 DROPPED PREFETCHES: 0
LLC PREFETCHES SAME FILL-ORIGIN LEVEL: 0 DIFFERENT FILL-ORIGIN LEVEL: 0
LLC AVERAGE MISS LATENCY: 162.624 cycles
LLC RQ	ACCESS:       3409	FORWARD:          0	MERGED:          0	TO_CACHE:       3409
LLC WQ	ACCESS:       2467	FORWARD:          0	MERGED:          0	TO_CACHE:       2467
LLC PQ	ACCESS:       1276	FORWARD:          0	MERGED:          0	TO_CACHE:       1276

LLC Dense regions hint to LLC: 0

RAW hits: 1860778
Loads Generated: 53885944
Loads sent to L1D: 52025165
Stores Generated: 24000930
Stores sent to L1D: 24000937
Major fault: 0 Minor fault: 1195
Allocated PAGES: 1195

DRAM Statistics
 CHANNEL 0
 RQ ROW_BUFFER_HIT:         93  ROW_BUFFER_MISS:       1234
 DBUS_CONGESTED:          0
 WQ ROW_BUFFER_HIT:          4  ROW_BUFFER_MISS:        406  FULL:          0

 AVG_CONGESTED_CYCLE: -
 All warmup complete: 2
Channel 0 Bank busy for read cycles: 0
Channel 0 Bank busy for write cycles: 0
Channel 0
Rank 0
0banks busy for read cycles: 537073196
0banks busy for write cycles: 410
1banks busy for read cycles: 186732
1banks busy for write cycles: 61624
2banks busy for read cycles: 491
2banks busy for write cycles: 0
3banks busy for read cycles: 341
3banks busy for write cycles: 0
4banks busy for read cycles: 127
4banks busy for write cycles: 0
5banks busy for read cycles: 101
5banks busy for write cycles: 0
6banks busy for read cycles: 0
6banks busy for write cycles: 0
7banks busy for read cycles: 0
7banks busy for write cycles: 0
8banks busy for read cycles: 0
8banks busy for write cycles: 0

CPU 0 Branch Prediction Accuracy: 90.2499% MPKI: 9.9615 Average ROB Occupancy at Mispredict: 24.2066
Branch types
NOT_BRANCH: 166902414 83.4512%
BRANCH_DIRECT_JUMP: 1150388 0.575194%
BRANCH_INDIRECT: 4209 0.0021045%
BRANCH_CONDITIONAL: 20433729 10.2169%
BRANCH_DIRECT_CALL: 5754446 2.87722%
BRANCH_INDIRECT_CALL: 0 0%
BRANCH_RETURN: 5754446 2.87722%
BRANCH_OTHER: 0 0%

DRAM PAGES: 1048576
Allocated PAGES: 1195
