
*** ChampSim Multicore Out-of-Order Simulator ***

Warmup Instructions: 50000000
Simulation Instructions: 200000000
Number of CPUs: 1
LLC sets: 2048
LLC ways: 16
Off-chip DRAM Size: 4096 MB Channels: 1 Width: 64-bit Data Rate: 6400 MT/s
argv[0]: ./ChampSim/Berti/bin/multiperspective_perceptron8kb-no-vberti-no-no-no-no-no-lru-lru-lru-srrip-drrip-lru-lru-lru-1core-no
argv[1]: -warmup_instructions
argv[2]: 50000000
argv[3]: -simulation_instructions
argv[4]: 200000000
argv[5]: -traces
argv[6]: traces/spec2k17_ten/641.leela_s-1052B.champsimtrace.xz
CPU 0 runs traces/spec2k17_ten/641.leela_s-1052B.champsimtrace.xz
.xz
CPU 0 Multiperspective perceptron branch predictor
BTB has LRU replacement policy
ITLB has LRU replacement policy
DTLB has LRU replacement policy
STLB has LRU replacement policy
L1I has LRU replacement policy
History Sets: 8
History Ways: 16
BERTI Size: 16
BERTI Stride Size: 16
L1D has LRU replacement policy
Initialize SRRIP state for L2C
Initialize DRRIP state for LLC
Heartbeat CPU 0 instructions: 10000003 cycles: 3113542 heartbeat IPC: 3.21178 cumulative IPC: 3.21178 (Simulation time: 0 hr 10 min 10 sec) 
Heartbeat CPU 0 instructions: 20000001 cycles: 6229621 heartbeat IPC: 3.20916 cumulative IPC: 3.21047 (Simulation time: 0 hr 17 min 15 sec) 
Heartbeat CPU 0 instructions: 30000003 cycles: 9341822 heartbeat IPC: 3.21316 cumulative IPC: 3.21137 (Simulation time: 0 hr 22 min 12 sec) 
Heartbeat CPU 0 instructions: 40000002 cycles: 12455653 heartbeat IPC: 3.21148 cumulative IPC: 3.21139 (Simulation time: 0 hr 28 min 48 sec) 
Heartbeat CPU 0 instructions: 50000000 cycles: 15569787 heartbeat IPC: 3.21116 cumulative IPC: 3.21135 (Simulation time: 0 hr 35 min 31 sec) 

Warmup complete CPU 0 instructions: 50000004 cycles: 15569788 (Simulation time: 0 hr 35 min 31 sec) 

Heartbeat CPU 0 instructions: 60000000 cycles: 42882444 heartbeat IPC: 0.366131 cumulative IPC: 0.36613 (Simulation time: 0 hr 40 min 54 sec) 
Heartbeat CPU 0 instructions: 70000003 cycles: 70014988 heartbeat IPC: 0.368561 cumulative IPC: 0.367342 (Simulation time: 0 hr 45 min 37 sec) 
Heartbeat CPU 0 instructions: 80000000 cycles: 97312458 heartbeat IPC: 0.366334 cumulative IPC: 0.367005 (Simulation time: 0 hr 54 min 14 sec) 
Heartbeat CPU 0 instructions: 90000000 cycles: 124930189 heartbeat IPC: 0.362086 cumulative IPC: 0.365763 (Simulation time: 1 hr 0 min 59 sec) 
Heartbeat CPU 0 instructions: 100000003 cycles: 152367624 heartbeat IPC: 0.364466 cumulative IPC: 0.365503 (Simulation time: 1 hr 8 min 53 sec) 
Heartbeat CPU 0 instructions: 110000000 cycles: 179499039 heartbeat IPC: 0.368576 cumulative IPC: 0.366012 (Simulation time: 1 hr 17 min 9 sec) 
Heartbeat CPU 0 instructions: 120000000 cycles: 206667283 heartbeat IPC: 0.368077 cumulative IPC: 0.366305 (Simulation time: 1 hr 25 min 18 sec) 
Heartbeat CPU 0 instructions: 130000002 cycles: 234096154 heartbeat IPC: 0.364579 cumulative IPC: 0.366089 (Simulation time: 1 hr 32 min 47 sec) 
Heartbeat CPU 0 instructions: 140000000 cycles: 261628232 heartbeat IPC: 0.363213 cumulative IPC: 0.365767 (Simulation time: 1 hr 39 min 8 sec) 
Heartbeat CPU 0 instructions: 150000000 cycles: 289071860 heartbeat IPC: 0.364383 cumulative IPC: 0.365628 (Simulation time: 1 hr 44 min 24 sec) 
Heartbeat CPU 0 instructions: 160000001 cycles: 316137051 heartbeat IPC: 0.369478 cumulative IPC: 0.365975 (Simulation time: 1 hr 50 min 59 sec) 
Heartbeat CPU 0 instructions: 170000001 cycles: 343409956 heartbeat IPC: 0.366664 cumulative IPC: 0.366032 (Simulation time: 1 hr 56 min 28 sec) 
Heartbeat CPU 0 instructions: 180000003 cycles: 370546361 heartbeat IPC: 0.368509 cumulative IPC: 0.366221 (Simulation time: 2 hr 2 min 3 sec) 
Heartbeat CPU 0 instructions: 190000000 cycles: 397872388 heartbeat IPC: 0.365951 cumulative IPC: 0.366202 (Simulation time: 2 hr 8 min 50 sec) 
Heartbeat CPU 0 instructions: 200000000 cycles: 425219525 heartbeat IPC: 0.365669 cumulative IPC: 0.366166 (Simulation time: 2 hr 13 min 14 sec) 
Heartbeat CPU 0 instructions: 210000000 cycles: 452377293 heartbeat IPC: 0.368219 cumulative IPC: 0.366294 (Simulation time: 2 hr 21 min 23 sec) 
Heartbeat CPU 0 instructions: 220000000 cycles: 479640519 heartbeat IPC: 0.366794 cumulative IPC: 0.366323 (Simulation time: 2 hr 29 min 32 sec) 
Heartbeat CPU 0 instructions: 230000002 cycles: 507079471 heartbeat IPC: 0.364445 cumulative IPC: 0.366219 (Simulation time: 2 hr 35 min 27 sec) 
Heartbeat CPU 0 instructions: 240000003 cycles: 534511207 heartbeat IPC: 0.364541 cumulative IPC: 0.36613 (Simulation time: 2 hr 42 min 2 sec) 
Heartbeat CPU 0 instructions: 250000002 cycles: 561851933 heartbeat IPC: 0.365755 cumulative IPC: 0.366111 (Simulation time: 2 hr 48 min 42 sec) 
Finished CPU 0 instructions: 200000002 cycles: 546282146 cumulative IPC: 0.366111 (Simulation time: 2 hr 48 min 42 sec) 

ChampSim completed all CPUs

Region of Interest Statistics

CPU 0 cumulative IPC: 0.366111 instructions: 200000002 cycles: 546282146
ITLB TOTAL     ACCESS:   34908816  HIT:   34908816  MISS:          0  HIT %:        100  MISS %:          0   MPKI: 0
ITLB LOAD TRANSLATION ACCESS:   34908816  HIT:   34908816  MISS:          0  HIT %:        100  MISS %:          0   MPKI: 0
ITLB PREFETCH  REQUESTED:          0  ISSUED:          0  USEFUL:          0  USELESS:          0
ITLB USEFUL LOAD PREFETCHES:          0 PREFETCH ISSUED TO LOWER LEVEL:          0  ACCURACY: -nan
ITLB TIMELY PREFETCHES:          0 LATE PREFETCHES: 0 DROPPED PREFETCHES: 0
ITLB PREFETCHES SAME FILL-ORIGIN LEVEL: 0 DIFFERENT FILL-ORIGIN LEVEL: 0
ITLB AVERAGE MISS LATENCY: -nan cycles
ITLB RQ	ACCESS:   39987990	FORWARD:          0	MERGED:    5079176	TO_CACHE:   34908814

DTLB TOTAL     ACCESS:   55022392  HIT:   54934467  MISS:      87925  HIT %:    99.8402  MISS %:   0.159799   MPKI: 0.439625
DTLB LOAD TRANSLATION ACCESS:   55022392  HIT:   54934467  MISS:      87925  HIT %:    99.8402  MISS %:   0.159799   MPKI: 0.439625
DTLB PREFETCH  REQUESTED:          0  ISSUED:          0  USEFUL:          0  USELESS:          0
DTLB USEFUL LOAD PREFETCHES:          0 PREFETCH ISSUED TO LOWER LEVEL:          0  ACCURACY: -nan
DTLB TIMELY PREFETCHES:          0 LATE PREFETCHES: 0 DROPPED PREFETCHES: 0
DTLB PREFETCHES SAME FILL-ORIGIN LEVEL: 0 DIFFERENT FILL-ORIGIN LEVEL: 0
DTLB AVERAGE MISS LATENCY: 9.32639 cycles
DTLB RQ	ACCESS:   63856115	FORWARD:          0	MERGED:    8832265	TO_CACHE:   55023850

STLB TOTAL     ACCESS:     619383  HIT:     619185  MISS:        198  HIT %:     99.968  MISS %:  0.0319673   MPKI: 0.00099
STLB LOAD TRANSLATION ACCESS:      87925  HIT:      87727  MISS:        198  HIT %:    99.7748  MISS %:   0.225192   MPKI: 0.00099
STLB TRANSLATION FROM L1D PREFETCHER ACCESS:     531458  HIT:     531458  MISS:          0  HIT %:        100  MISS %:          0   MPKI: 0
STLB PREFETCH  REQUESTED:          0  ISSUED:          0  USEFUL:          0  USELESS:          0
STLB USEFUL LOAD PREFETCHES:          0 PREFETCH ISSUED TO LOWER LEVEL:          0  ACCURACY: -nan
STLB TIMELY PREFETCHES:          0 LATE PREFETCHES: 2 DROPPED PREFETCHES: 4364
STLB PREFETCHES SAME FILL-ORIGIN LEVEL: 0 DIFFERENT FILL-ORIGIN LEVEL: 0
STLB AVERAGE MISS LATENCY: 162.182 cycles
STLB RQ	ACCESS:    3307870	FORWARD:          0	MERGED:    2683838	TO_CACHE:     624032

STLB Hit, L1D data hit: 0
STLB Hit, L2C data hit: 0
STLB Hit, LLC data hit: 0
STLB Hit, LLC data miss: 0
STLB STLB hints to L2: 0
L1D TOTAL     ACCESS:   66269670  HIT:   65786672  MISS:     482998  HIT %:    99.2712  MISS %:   0.728837   MPKI: 2.41499
L1D LOAD      ACCESS:   40979978  HIT:   40645563  MISS:     334415  HIT %:     99.184  MISS %:   0.816045   MPKI: 1.67207
L1D RFO       ACCESS:   22783991  HIT:   22723990  MISS:      60001  HIT %:    99.7367  MISS %:   0.263347   MPKI: 0.300005
L1D PREFETCH  ACCESS:    2505701  HIT:    2417119  MISS:      88582  HIT %:    96.4648  MISS %:    3.53522   MPKI: 0.44291
L1D PREFETCH  REQUESTED:    6543643  ISSUED:    6543236  USEFUL:      73508  USELESS:      15067
L1D USEFUL LOAD PREFETCHES:      73508 PREFETCH ISSUED TO LOWER LEVEL:     787130  ACCURACY: 9.33874
L1D TIMELY PREFETCHES:      73508 LATE PREFETCHES: 1270 DROPPED PREFETCHES: 12055
L1D PREFETCHES SAME FILL-ORIGIN LEVEL: 89852 DIFFERENT FILL-ORIGIN LEVEL: 697278
L1D AVERAGE MISS LATENCY: 15.8388 cycles
L1D RQ	ACCESS:   52446157	FORWARD:          0	MERGED:    9381184	TO_CACHE:   40986570
L1D WQ	ACCESS:   23320668	FORWARD:    2078403	MERGED:     451123	TO_CACHE:   22869545
L1D PQ	ACCESS:    3323291	FORWARD:          0	MERGED:     103346	TO_CACHE:    3219945

L1D UNIQUE REGIONS ACCESSED: 0
L1D REGIONS CONFLICTS: 0
L1D Cross Page Prefetch Requests: 397292
L1D Same Page Prefetch Requests: 3827370
L1D ROI Sum of L1D PQ occupancy: 47056696
L1D PREFETCHES PUSHED FROM L2C: 0
L1I TOTAL     ACCESS:   39983269  HIT:   39970183  MISS:      13086  HIT %:    99.9673  MISS %:  0.0327287   MPKI: 0.06543
L1I LOAD      ACCESS:   39983269  HIT:   39970183  MISS:      13086  HIT %:    99.9673  MISS %:  0.0327287   MPKI: 0.06543
L1I PREFETCH  REQUESTED:          0  ISSUED:          0  USEFUL:          0  USELESS:          0
L1I USEFUL LOAD PREFETCHES:          0 PREFETCH ISSUED TO LOWER LEVEL:          0  ACCURACY: -nan
L1I TIMELY PREFETCHES:          0 LATE PREFETCHES: 0 DROPPED PREFETCHES: 0
L1I PREFETCHES SAME FILL-ORIGIN LEVEL: 0 DIFFERENT FILL-ORIGIN LEVEL: 0
L1I AVERAGE MISS LATENCY: 14.6554 cycles
L1I RQ	ACCESS:   57231661	FORWARD:          0	MERGED:   17243671	TO_CACHE:   39987990

BTB TOTAL     ACCESS:   31949222  HIT:   29644441  MISS:    2304781  HIT %:    92.7861  MISS %:    7.21389   MPKI: 11.5239
BTB BRANCH_DIRECT_JUMP	ACCESS:    1054691  HIT:    1054606  MISS:         85
BTB BRANCH_INDIRECT	ACCESS:       1433  HIT:       1332  MISS:        101
BTB BRANCH_CONDITIONAL	ACCESS:   18991846  HIT:   18990336  MISS:       1510
BTB BRANCH_DIRECT_CALL	ACCESS:    5950626  HIT:    5950002  MISS:        624
BTB BRANCH_INDIRECT_CALL	ACCESS:          0  HIT:          0  MISS:          0
BTB BRANCH_RETURN	ACCESS:    5950626  HIT:    3648165  MISS:    2302461
BTB BRANCH_OTHER ACCESS:          0  HIT:          0  MISS:          0

L2C TOTAL     ACCESS:    1303617  HIT:    1298658  MISS:       4959  HIT %:    99.6196  MISS %:   0.380403   MPKI: 0.024795
L2C LOAD      ACCESS:     346231  HIT:     343731  MISS:       2500  HIT %:    99.2779  MISS %:   0.722061   MPKI: 0.0125
L2C DATA LOAD MPKI: 0.012245
L2C INSTRUCTION LOAD MPKI: 0.000255
L2C RFO       ACCESS:      60001  HIT:      59696  MISS:        305  HIT %:    99.4917  MISS %:   0.508325   MPKI: 0.001525
L2C PREFETCH  ACCESS:     786255  HIT:     784197  MISS:       2058  HIT %:    99.7383  MISS %:   0.261747   MPKI: 0.01029
L2C DATA PREFETCH MPKI: 0.01029
L2C INSTRUCTION PREFETCH MPKI: 0
L2C WRITEBACK ACCESS:     106566  HIT:     106550  MISS:         16  HIT %:     99.985  MISS %:  0.0150142   MPKI: 8e-05
L2C LOAD TRANSLATION ACCESS:        198  HIT:        129  MISS:         69  HIT %:    65.1515  MISS %:    34.8485   MPKI: 0.000345
L2C TRANSLATION FROM L1D PREFETCHER ACCESS:       4366  HIT:       4355  MISS:         11  HIT %:    99.7481  MISS %:   0.251947   MPKI: 5.5e-05
L2C PREFETCH  REQUESTED:          0  ISSUED:          0  USEFUL:        759  USELESS:        557
L2C USEFUL LOAD PREFETCHES:        759 PREFETCH ISSUED TO LOWER LEVEL:       2073  ACCURACY: 36.6136
L2C TIMELY PREFETCHES:        759 LATE PREFETCHES: 15 DROPPED PREFETCHES: 0
L2C PREFETCHES SAME FILL-ORIGIN LEVEL: 1035 DIFFERENT FILL-ORIGIN LEVEL: 0
L2C AVERAGE MISS LATENCY: 105.932 cycles
L2C RQ	ACCESS:     410796	FORWARD:          0	MERGED:          0	TO_CACHE:     410796
L2C WQ	ACCESS:     106566	FORWARD:          0	MERGED:          0	TO_CACHE:     106566
L2C PQ	ACCESS:     787130	FORWARD:          0	MERGED:         58	TO_CACHE:     787072

L2C Instructions Evicting Data 27
L2C Translations Evicting Data 36
L2C Data Evicting Data 2781
L2C Instructions Evicting Instructions 0
L2C Translations Evicting Instructions 2
L2C Data Evicting Instructions 123
L2C Instructions Evicting Translations 1
L2C Translations Evicting Translations 1
L2C Data Evicting Translations 79
L2C Dense regions hint from L2: 0
PSCL5 TOTAL     ACCESS:       4564  HIT:       4564  MISS:          0  HIT %:        100  MISS %:          0   MPKI: 0
PSCL5 LOAD TRANSLATION ACCESS:        198  HIT:        198  MISS:          0  HIT %:        100  MISS %:          0   MPKI: 0
PSCL5 TRANSLATION FROM L1D PREFETCHER ACCESS:       4366  HIT:       4366  MISS:          0  HIT %:        100  MISS %:          0   MPKI: 0
PSCL5 PREFETCH  REQUESTED:          0  ISSUED:          0  USEFUL:          0  USELESS:          0
PSCL5 USEFUL LOAD PREFETCHES:          0 PREFETCH ISSUED TO LOWER LEVEL:          0  ACCURACY: -nan
PSCL5 TIMELY PREFETCHES:          0 LATE PREFETCHES: 0 DROPPED PREFETCHES: 0
PSCL5 PREFETCHES SAME FILL-ORIGIN LEVEL: 0 DIFFERENT FILL-ORIGIN LEVEL: 0

PSCL4 TOTAL     ACCESS:       4564  HIT:       4564  MISS:          0  HIT %:        100  MISS %:          0   MPKI: 0
PSCL4 LOAD TRANSLATION ACCESS:        198  HIT:        198  MISS:          0  HIT %:        100  MISS %:          0   MPKI: 0
PSCL4 TRANSLATION FROM L1D PREFETCHER ACCESS:       4366  HIT:       4366  MISS:          0  HIT %:        100  MISS %:          0   MPKI: 0
PSCL4 PREFETCH  REQUESTED:          0  ISSUED:          0  USEFUL:          0  USELESS:          0
PSCL4 USEFUL LOAD PREFETCHES:          0 PREFETCH ISSUED TO LOWER LEVEL:          0  ACCURACY: -nan
PSCL4 TIMELY PREFETCHES:          0 LATE PREFETCHES: 0 DROPPED PREFETCHES: 0
PSCL4 PREFETCHES SAME FILL-ORIGIN LEVEL: 0 DIFFERENT FILL-ORIGIN LEVEL: 0

PSCL3 TOTAL     ACCESS:       4564  HIT:       4564  MISS:          0  HIT %:        100  MISS %:          0   MPKI: 0
PSCL3 LOAD TRANSLATION ACCESS:        198  HIT:        198  MISS:          0  HIT %:        100  MISS %:          0   MPKI: 0
PSCL3 TRANSLATION FROM L1D PREFETCHER ACCESS:       4366  HIT:       4366  MISS:          0  HIT %:        100  MISS %:          0   MPKI: 0
PSCL3 PREFETCH  REQUESTED:          0  ISSUED:          0  USEFUL:          0  USELESS:          0
PSCL3 USEFUL LOAD PREFETCHES:          0 PREFETCH ISSUED TO LOWER LEVEL:          0  ACCURACY: -nan
PSCL3 TIMELY PREFETCHES:          0 LATE PREFETCHES: 0 DROPPED PREFETCHES: 0
PSCL3 PREFETCHES SAME FILL-ORIGIN LEVEL: 0 DIFFERENT FILL-ORIGIN LEVEL: 0

PSCL2 TOTAL     ACCESS:       4564  HIT:       4564  MISS:          0  HIT %:        100  MISS %:          0   MPKI: 0
PSCL2 LOAD TRANSLATION ACCESS:        198  HIT:        198  MISS:          0  HIT %:        100  MISS %:          0   MPKI: 0
PSCL2 TRANSLATION FROM L1D PREFETCHER ACCESS:       4366  HIT:       4366  MISS:          0  HIT %:        100  MISS %:          0   MPKI: 0
PSCL2 PREFETCH  REQUESTED:          0  ISSUED:          0  USEFUL:          0  USELESS:          0
PSCL2 USEFUL LOAD PREFETCHES:          0 PREFETCH ISSUED TO LOWER LEVEL:          0  ACCURACY: -nan
PSCL2 TIMELY PREFETCHES:          0 LATE PREFETCHES: 0 DROPPED PREFETCHES: 0
PSCL2 PREFETCHES SAME FILL-ORIGIN LEVEL: 0 DIFFERENT FILL-ORIGIN LEVEL: 0

LLC TOTAL     ACCESS:       5335  HIT:       2192  MISS:       3143  HIT %:    41.0872  MISS %:    58.9128   MPKI: 0.015715
LLC LOAD      ACCESS:       2485  HIT:       1449  MISS:       1036  HIT %:    58.3099  MISS %:    41.6901   MPKI: 0.00518
LLC RFO       ACCESS:        305  HIT:          7  MISS:        298  HIT %:    2.29508  MISS %:    97.7049   MPKI: 0.00149
LLC PREFETCH  ACCESS:       2073  HIT:        314  MISS:       1759  HIT %:    15.1471  MISS %:    84.8529   MPKI: 0.008795
LLC WRITEBACK ACCESS:        392  HIT:        389  MISS:          3  HIT %:    99.2347  MISS %:   0.765306   MPKI: 1.5e-05
LLC LOAD TRANSLATION ACCESS:         69  HIT:         22  MISS:         47  HIT %:    31.8841  MISS %:    68.1159   MPKI: 0.000235
LLC TRANSLATION FROM L1D PREFETCHER ACCESS:         11  HIT:         11  MISS:          0  HIT %:        100  MISS %:          0   MPKI: 0
LLC PREFETCH  REQUESTED:          0  ISSUED:          0  USEFUL:         10  USELESS:         33
LLC USEFUL LOAD PREFETCHES:         10 PREFETCH ISSUED TO LOWER LEVEL:       1759  ACCURACY: 0.568505
LLC TIMELY PREFETCHES:         10 LATE PREFETCHES: 0 DROPPED PREFETCHES: 0
LLC PREFETCHES SAME FILL-ORIGIN LEVEL: 0 DIFFERENT FILL-ORIGIN LEVEL: 0
LLC AVERAGE MISS LATENCY: 119.897 cycles
LLC RQ	ACCESS:       2870	FORWARD:          0	MERGED:          0	TO_CACHE:       2870
LLC WQ	ACCESS:        392	FORWARD:          0	MERGED:          0	TO_CACHE:        392
LLC PQ	ACCESS:       2073	FORWARD:          0	MERGED:          0	TO_CACHE:       2073

LLC Dense regions hint to LLC: 0

RAW hits: 1871865
Loads Generated: 54318022
Loads sent to L1D: 52446157
Stores Generated: 23320664
Stores sent to L1D: 23320668
Major fault: 0 Minor fault: 648
Allocated PAGES: 648

DRAM Statistics
 CHANNEL 0
 RQ ROW_BUFFER_HIT:       1689  ROW_BUFFER_MISS:       1451
 DBUS_CONGESTED:          0
 WQ ROW_BUFFER_HIT:          0  ROW_BUFFER_MISS:          0  FULL:          0

 AVG_CONGESTED_CYCLE: -
 All warmup complete: 2
Channel 0 Bank busy for read cycles: 0
Channel 0 Bank busy for write cycles: 0
Channel 0
Rank 0
0banks busy for read cycles: 546052238
0banks busy for write cycles: 0
1banks busy for read cycles: 196609
1banks busy for write cycles: 0
2banks busy for read cycles: 18408
2banks busy for write cycles: 0
3banks busy for read cycles: 6056
3banks busy for write cycles: 0
4banks busy for read cycles: 3432
4banks busy for write cycles: 0
5banks busy for read cycles: 1215
5banks busy for write cycles: 0
6banks busy for read cycles: 886
6banks busy for write cycles: 0
7banks busy for read cycles: 1028
7banks busy for write cycles: 0
8banks busy for read cycles: 2275
8banks busy for write cycles: 0

CPU 0 Branch Prediction Accuracy: 87.5893% MPKI: 12.8277 Average ROB Occupancy at Mispredict: 21.0282
Branch types
NOT_BRANCH: 166370287 83.1851%
BRANCH_DIRECT_JUMP: 1054691 0.527345%
BRANCH_INDIRECT: 1433 0.0007165%
BRANCH_CONDITIONAL: 20671974 10.336%
BRANCH_DIRECT_CALL: 5950626 2.97531%
BRANCH_INDIRECT_CALL: 0 0%
BRANCH_RETURN: 5950626 2.97531%
BRANCH_OTHER: 0 0%

DRAM PAGES: 1048576
Allocated PAGES: 648
