
*** ChampSim Multicore Out-of-Order Simulator ***

Warmup Instructions: 50000000
Simulation Instructions: 200000000
Number of CPUs: 1
LLC sets: 2048
LLC ways: 16
Off-chip DRAM Size: 4096 MB Channels: 1 Width: 64-bit Data Rate: 6400 MT/s
argv[0]: ./ChampSim/Berti/bin/multiperspective_perceptron8kb-no-vberti-no-no-no-no-no-lru-lru-lru-srrip-drrip-lru-lru-lru-1core-no
argv[1]: -warmup_instructions
argv[2]: 50000000
argv[3]: -simulation_instructions
argv[4]: 200000000
argv[5]: -traces
argv[6]: traces/spec2k17_ten/641.leela_s-1083B.champsimtrace.xz
CPU 0 runs traces/spec2k17_ten/641.leela_s-1083B.champsimtrace.xz
.xz
CPU 0 Multiperspective perceptron branch predictor
BTB has LRU replacement policy
ITLB has LRU replacement policy
DTLB has LRU replacement policy
STLB has LRU replacement policy
L1I has LRU replacement policy
History Sets: 8
History Ways: 16
BERTI Size: 16
BERTI Stride Size: 16
L1D has LRU replacement policy
Initialize SRRIP state for L2C
Initialize DRRIP state for LLC
Heartbeat CPU 0 instructions: 10000000 cycles: 3152141 heartbeat IPC: 3.17245 cumulative IPC: 3.17245 (Simulation time: 0 hr 11 min 27 sec) 
Heartbeat CPU 0 instructions: 20000000 cycles: 6313435 heartbeat IPC: 3.16326 cumulative IPC: 3.16785 (Simulation time: 0 hr 19 min 55 sec) 
Heartbeat CPU 0 instructions: 30000003 cycles: 9485735 heartbeat IPC: 3.15229 cumulative IPC: 3.16264 (Simulation time: 0 hr 26 min 20 sec) 
Heartbeat CPU 0 instructions: 40000003 cycles: 12643200 heartbeat IPC: 3.1671 cumulative IPC: 3.16376 (Simulation time: 0 hr 31 min 33 sec) 
Heartbeat CPU 0 instructions: 50000003 cycles: 15799708 heartbeat IPC: 3.16806 cumulative IPC: 3.16462 (Simulation time: 0 hr 37 min 3 sec) 

Warmup complete CPU 0 instructions: 50000003 cycles: 15799708 (Simulation time: 0 hr 37 min 3 sec) 

Heartbeat CPU 0 instructions: 60000002 cycles: 43012703 heartbeat IPC: 0.367471 cumulative IPC: 0.367471 (Simulation time: 0 hr 42 min 13 sec) 
Heartbeat CPU 0 instructions: 70000002 cycles: 70513355 heartbeat IPC: 0.363628 cumulative IPC: 0.365539 (Simulation time: 0 hr 49 min 14 sec) 
Heartbeat CPU 0 instructions: 80000000 cycles: 97659381 heartbeat IPC: 0.368378 cumulative IPC: 0.366481 (Simulation time: 0 hr 57 min 16 sec) 
Heartbeat CPU 0 instructions: 90000003 cycles: 125583448 heartbeat IPC: 0.358114 cumulative IPC: 0.364353 (Simulation time: 1 hr 6 min 3 sec) 
Heartbeat CPU 0 instructions: 100000002 cycles: 153161061 heartbeat IPC: 0.362613 cumulative IPC: 0.364003 (Simulation time: 1 hr 14 min 50 sec) 
Heartbeat CPU 0 instructions: 110000000 cycles: 180199910 heartbeat IPC: 0.369838 cumulative IPC: 0.364963 (Simulation time: 1 hr 21 min 23 sec) 
Heartbeat CPU 0 instructions: 120000000 cycles: 207201387 heartbeat IPC: 0.37035 cumulative IPC: 0.365723 (Simulation time: 1 hr 28 min 51 sec) 
Heartbeat CPU 0 instructions: 130000001 cycles: 234582070 heartbeat IPC: 0.365221 cumulative IPC: 0.36566 (Simulation time: 1 hr 36 min 44 sec) 
Heartbeat CPU 0 instructions: 140000000 cycles: 262068820 heartbeat IPC: 0.363812 cumulative IPC: 0.365454 (Simulation time: 1 hr 42 min 27 sec) 
Heartbeat CPU 0 instructions: 150000000 cycles: 289284190 heartbeat IPC: 0.367439 cumulative IPC: 0.365651 (Simulation time: 1 hr 48 min 1 sec) 
Heartbeat CPU 0 instructions: 160000000 cycles: 316252611 heartbeat IPC: 0.370804 cumulative IPC: 0.366114 (Simulation time: 1 hr 52 min 40 sec) 
Heartbeat CPU 0 instructions: 170000001 cycles: 343363249 heartbeat IPC: 0.368859 cumulative IPC: 0.366341 (Simulation time: 1 hr 58 min 9 sec) 
Heartbeat CPU 0 instructions: 180000001 cycles: 370706926 heartbeat IPC: 0.365715 cumulative IPC: 0.366293 (Simulation time: 2 hr 4 min 24 sec) 
Heartbeat CPU 0 instructions: 190000000 cycles: 397880015 heartbeat IPC: 0.368011 cumulative IPC: 0.366415 (Simulation time: 2 hr 12 min 9 sec) 
Heartbeat CPU 0 instructions: 200000001 cycles: 425193792 heartbeat IPC: 0.366116 cumulative IPC: 0.366395 (Simulation time: 2 hr 16 min 0 sec) 
Heartbeat CPU 0 instructions: 210000003 cycles: 452962833 heartbeat IPC: 0.360113 cumulative IPC: 0.365996 (Simulation time: 2 hr 23 min 3 sec) 
Heartbeat CPU 0 instructions: 220000000 cycles: 480627363 heartbeat IPC: 0.361474 cumulative IPC: 0.365727 (Simulation time: 2 hr 30 min 39 sec) 
Heartbeat CPU 0 instructions: 230000000 cycles: 508368997 heartbeat IPC: 0.360469 cumulative IPC: 0.365431 (Simulation time: 2 hr 37 min 10 sec) 
Heartbeat CPU 0 instructions: 240000000 cycles: 535658960 heartbeat IPC: 0.366435 cumulative IPC: 0.365484 (Simulation time: 2 hr 44 min 51 sec) 
Heartbeat CPU 0 instructions: 250000000 cycles: 594727033 heartbeat IPC: 0.169296 cumulative IPC: 0.345466 (Simulation time: 3 hr 1 min 46 sec) 
Finished CPU 0 instructions: 200000000 cycles: 578927376 cumulative IPC: 0.345466 (Simulation time: 3 hr 1 min 46 sec) 

ChampSim completed all CPUs

Region of Interest Statistics

CPU 0 cumulative IPC: 0.345466 instructions: 200000000 cycles: 578927376
ITLB TOTAL     ACCESS:   36733864  HIT:   36733616  MISS:        248  HIT %:    99.9993  MISS %: 0.000675126   MPKI: 0.00124
ITLB LOAD TRANSLATION ACCESS:   36733864  HIT:   36733616  MISS:        248  HIT %:    99.9993  MISS %: 0.000675126   MPKI: 0.00124
ITLB PREFETCH  REQUESTED:          0  ISSUED:          0  USEFUL:          0  USELESS:          0
ITLB USEFUL LOAD PREFETCHES:          0 PREFETCH ISSUED TO LOWER LEVEL:          0  ACCURACY: -nan
ITLB TIMELY PREFETCHES:          0 LATE PREFETCHES: 0 DROPPED PREFETCHES: 0
ITLB PREFETCHES SAME FILL-ORIGIN LEVEL: 0 DIFFERENT FILL-ORIGIN LEVEL: 0
ITLB AVERAGE MISS LATENCY: 130.702 cycles
ITLB RQ	ACCESS:   41769450	FORWARD:          0	MERGED:    5035518	TO_CACHE:   36733932

DTLB TOTAL     ACCESS:   59863110  HIT:   59759257  MISS:     103853  HIT %:    99.8265  MISS %:   0.173484   MPKI: 0.519265
DTLB LOAD TRANSLATION ACCESS:   59863110  HIT:   59759257  MISS:     103853  HIT %:    99.8265  MISS %:   0.173484   MPKI: 0.519265
DTLB PREFETCH  REQUESTED:          0  ISSUED:          0  USEFUL:          0  USELESS:          0
DTLB USEFUL LOAD PREFETCHES:          0 PREFETCH ISSUED TO LOWER LEVEL:          0  ACCURACY: -nan
DTLB TIMELY PREFETCHES:          0 LATE PREFETCHES: 0 DROPPED PREFETCHES: 0
DTLB PREFETCHES SAME FILL-ORIGIN LEVEL: 0 DIFFERENT FILL-ORIGIN LEVEL: 0
DTLB AVERAGE MISS LATENCY: 13.1221 cycles
DTLB RQ	ACCESS:   67682575	FORWARD:          0	MERGED:    7803843	TO_CACHE:   59878732

STLB TOTAL     ACCESS:    3493637  HIT:    3487396  MISS:       6241  HIT %:    99.8214  MISS %:   0.178639   MPKI: 0.031205
STLB LOAD TRANSLATION ACCESS:     104101  HIT:      99703  MISS:       4398  HIT %:    95.7753  MISS %:    4.22474   MPKI: 0.02199
STLB TRANSLATION FROM L1D PREFETCHER ACCESS:    3389536  HIT:    3387693  MISS:       1843  HIT %:    99.9456  MISS %:  0.0543732   MPKI: 0.009215
STLB PREFETCH  REQUESTED:          0  ISSUED:          0  USEFUL:       1824  USELESS:         13
STLB USEFUL LOAD PREFETCHES:       1824 PREFETCH ISSUED TO LOWER LEVEL:          0  ACCURACY: inf
STLB TIMELY PREFETCHES:       1824 LATE PREFETCHES: 351 DROPPED PREFETCHES: 27508
STLB PREFETCHES SAME FILL-ORIGIN LEVEL: 0 DIFFERENT FILL-ORIGIN LEVEL: 0
STLB AVERAGE MISS LATENCY: 93.8838 cycles
STLB RQ	ACCESS:   22416870	FORWARD:          0	MERGED:   18886184	TO_CACHE:    3530686

STLB Hit, L1D data hit: 0
STLB Hit, L2C data hit: 0
STLB Hit, LLC data hit: 0
STLB Hit, LLC data miss: 0
STLB STLB hints to L2: 0
L1D TOTAL     ACCESS:   84296057  HIT:   83012860  MISS:    1283197  HIT %:    98.4777  MISS %:    1.52225   MPKI: 6.41599
L1D LOAD      ACCESS:   42389128  HIT:   41964398  MISS:     424730  HIT %:     98.998  MISS %:    1.00198   MPKI: 2.12365
L1D RFO       ACCESS:   23071028  HIT:   22640648  MISS:     430380  HIT %:    98.1345  MISS %:    1.86546   MPKI: 2.1519
L1D PREFETCH  ACCESS:   18835901  HIT:   18407814  MISS:     428087  HIT %:    97.7273  MISS %:    2.27272   MPKI: 2.14044
L1D PREFETCH  REQUESTED:   45712008  ISSUED:   45694704  USEFUL:     405297  USELESS:      22783
L1D USEFUL LOAD PREFETCHES:     405297 PREFETCH ISSUED TO LOWER LEVEL:    2193723  ACCURACY: 18.4753
L1D TIMELY PREFETCHES:     405297 LATE PREFETCHES: 4463 DROPPED PREFETCHES: 84947
L1D PREFETCHES SAME FILL-ORIGIN LEVEL: 432555 DIFFERENT FILL-ORIGIN LEVEL: 1761168
L1D AVERAGE MISS LATENCY: 126.909 cycles
L1D RQ	ACCESS:   53617945	FORWARD:          0	MERGED:    9194448	TO_CACHE:   42411133
L1D WQ	ACCESS:   25679663	FORWARD:    2012364	MERGED:     408221	TO_CACHE:   25271442
L1D PQ	ACCESS:   23381935	FORWARD:          0	MERGED:    1069166	TO_CACHE:   22312769

L1D UNIQUE REGIONS ACCESSED: 0
L1D REGIONS CONFLICTS: 0
L1D Cross Page Prefetch Requests: 2387557
L1D Same Page Prefetch Requests: 21960090
L1D ROI Sum of L1D PQ occupancy: 329441953
L1D PREFETCHES PUSHED FROM L2C: 0
L1I TOTAL     ACCESS:   41763909  HIT:   41748482  MISS:      15427  HIT %:    99.9631  MISS %:  0.0369386   MPKI: 0.077135
L1I LOAD      ACCESS:   41763909  HIT:   41748482  MISS:      15427  HIT %:    99.9631  MISS %:  0.0369386   MPKI: 0.077135
L1I PREFETCH  REQUESTED:          0  ISSUED:          0  USEFUL:          0  USELESS:          0
L1I USEFUL LOAD PREFETCHES:          0 PREFETCH ISSUED TO LOWER LEVEL:          0  ACCURACY: -nan
L1I TIMELY PREFETCHES:          0 LATE PREFETCHES: 0 DROPPED PREFETCHES: 0
L1I PREFETCHES SAME FILL-ORIGIN LEVEL: 0 DIFFERENT FILL-ORIGIN LEVEL: 0
L1I AVERAGE MISS LATENCY: 46.0776 cycles
L1I RQ	ACCESS:   58737617	FORWARD:          0	MERGED:   16968167	TO_CACHE:   41769450

BTB TOTAL     ACCESS:   31329121  HIT:   29031204  MISS:    2297917  HIT %:    92.6652  MISS %:    7.33476   MPKI: 11.4896
BTB BRANCH_DIRECT_JUMP	ACCESS:    1094608  HIT:    1094408  MISS:        200
BTB BRANCH_INDIRECT	ACCESS:       6209  HIT:       4182  MISS:       2027
BTB BRANCH_CONDITIONAL	ACCESS:   18688882  HIT:   18687006  MISS:       1876
BTB BRANCH_DIRECT_CALL	ACCESS:    5769438  HIT:    5768610  MISS:        828
BTB BRANCH_INDIRECT_CALL	ACCESS:        272  HIT:        218  MISS:         54
BTB BRANCH_RETURN	ACCESS:    5769712  HIT:    3476780  MISS:    2292932
BTB BRANCH_OTHER ACCESS:          0  HIT:          0  MISS:          0

L2C TOTAL     ACCESS:    3241522  HIT:    2473778  MISS:     767744  HIT %:    76.3153  MISS %:    23.6847   MPKI: 3.83872
L2C LOAD      ACCESS:     435693  HIT:     379111  MISS:      56582  HIT %:    87.0133  MISS %:    12.9867   MPKI: 0.28291
L2C DATA LOAD MPKI: 0.26948
L2C INSTRUCTION LOAD MPKI: 0.01343
L2C RFO       ACCESS:     430371  HIT:      64690  MISS:     365681  HIT %:    15.0312  MISS %:    84.9688   MPKI: 1.82841
L2C PREFETCH  ACCESS:    1849842  HIT:    1508451  MISS:     341391  HIT %:    81.5449  MISS %:    18.4551   MPKI: 1.70696
L2C DATA PREFETCH MPKI: 1.70696
L2C INSTRUCTION PREFETCH MPKI: 0
L2C WRITEBACK ACCESS:     491520  HIT:     489164  MISS:       2356  HIT %:    99.5207  MISS %:   0.479329   MPKI: 0.01178
L2C LOAD TRANSLATION ACCESS:       4394  HIT:       3187  MISS:       1207  HIT %:    72.5307  MISS %:    27.4693   MPKI: 0.006035
L2C TRANSLATION FROM L1D PREFETCHER ACCESS:      29702  HIT:      29175  MISS:        527  HIT %:    98.2257  MISS %:    1.77429   MPKI: 0.002635
L2C PREFETCH  REQUESTED:          0  ISSUED:          0  USEFUL:      16264  USELESS:     325739
L2C USEFUL LOAD PREFETCHES:      16264 PREFETCH ISSUED TO LOWER LEVEL:     346679  ACCURACY: 4.69137
L2C TIMELY PREFETCHES:      16264 LATE PREFETCHES: 5287 DROPPED PREFETCHES: 0
L2C PREFETCHES SAME FILL-ORIGIN LEVEL: 96642 DIFFERENT FILL-ORIGIN LEVEL: 0
L2C AVERAGE MISS LATENCY: 211.915 cycles
L2C RQ	ACCESS:     900172	FORWARD:          0	MERGED:          0	TO_CACHE:     900162
L2C WQ	ACCESS:     491520	FORWARD:         10	MERGED:          0	TO_CACHE:     491520
L2C PQ	ACCESS:    2192915	FORWARD:          0	MERGED:       1101	TO_CACHE:    2191814

L2C Instructions Evicting Data 2577
L2C Translations Evicting Data 1689
L2C Data Evicting Data 754789
L2C Instructions Evicting Instructions 99
L2C Translations Evicting Instructions 18
L2C Data Evicting Instructions 2822
L2C Instructions Evicting Translations 9
L2C Translations Evicting Translations 2
L2C Data Evicting Translations 1856
L2C Dense regions hint from L2: 0
PSCL5 TOTAL     ACCESS:      34096  HIT:      34096  MISS:          0  HIT %:        100  MISS %:          0   MPKI: 0
PSCL5 LOAD TRANSLATION ACCESS:       4394  HIT:       4394  MISS:          0  HIT %:        100  MISS %:          0   MPKI: 0
PSCL5 TRANSLATION FROM L1D PREFETCHER ACCESS:      29702  HIT:      29702  MISS:          0  HIT %:        100  MISS %:          0   MPKI: 0
PSCL5 PREFETCH  REQUESTED:          0  ISSUED:          0  USEFUL:          0  USELESS:          0
PSCL5 USEFUL LOAD PREFETCHES:          0 PREFETCH ISSUED TO LOWER LEVEL:          0  ACCURACY: -nan
PSCL5 TIMELY PREFETCHES:          0 LATE PREFETCHES: 0 DROPPED PREFETCHES: 0
PSCL5 PREFETCHES SAME FILL-ORIGIN LEVEL: 0 DIFFERENT FILL-ORIGIN LEVEL: 0

PSCL4 TOTAL     ACCESS:      34096  HIT:      34096  MISS:          0  HIT %:        100  MISS %:          0   MPKI: 0
PSCL4 LOAD TRANSLATION ACCESS:       4394  HIT:       4394  MISS:          0  HIT %:        100  MISS %:          0   MPKI: 0
PSCL4 TRANSLATION FROM L1D PREFETCHER ACCESS:      29702  HIT:      29702  MISS:          0  HIT %:        100  MISS %:          0   MPKI: 0
PSCL4 PREFETCH  REQUESTED:          0  ISSUED:          0  USEFUL:          0  USELESS:          0
PSCL4 USEFUL LOAD PREFETCHES:          0 PREFETCH ISSUED TO LOWER LEVEL:          0  ACCURACY: -nan
PSCL4 TIMELY PREFETCHES:          0 LATE PREFETCHES: 0 DROPPED PREFETCHES: 0
PSCL4 PREFETCHES SAME FILL-ORIGIN LEVEL: 0 DIFFERENT FILL-ORIGIN LEVEL: 0

PSCL3 TOTAL     ACCESS:      34096  HIT:      34096  MISS:          0  HIT %:        100  MISS %:          0   MPKI: 0
PSCL3 LOAD TRANSLATION ACCESS:       4394  HIT:       4394  MISS:          0  HIT %:        100  MISS %:          0   MPKI: 0
PSCL3 TRANSLATION FROM L1D PREFETCHER ACCESS:      29702  HIT:      29702  MISS:          0  HIT %:        100  MISS %:          0   MPKI: 0
PSCL3 PREFETCH  REQUESTED:          0  ISSUED:          0  USEFUL:          0  USELESS:          0
PSCL3 USEFUL LOAD PREFETCHES:          0 PREFETCH ISSUED TO LOWER LEVEL:          0  ACCURACY: -nan
PSCL3 TIMELY PREFETCHES:          0 LATE PREFETCHES: 0 DROPPED PREFETCHES: 0
PSCL3 PREFETCHES SAME FILL-ORIGIN LEVEL: 0 DIFFERENT FILL-ORIGIN LEVEL: 0

PSCL2 TOTAL     ACCESS:      34096  HIT:      34094  MISS:          2  HIT %:    99.9941  MISS %: 0.00586579   MPKI: 1e-05
PSCL2 LOAD TRANSLATION ACCESS:       4394  HIT:       4392  MISS:          2  HIT %:    99.9545  MISS %:  0.0455166   MPKI: 1e-05
PSCL2 TRANSLATION FROM L1D PREFETCHER ACCESS:      29702  HIT:      29702  MISS:          0  HIT %:        100  MISS %:          0   MPKI: 0
PSCL2 PREFETCH  REQUESTED:          0  ISSUED:          0  USEFUL:          0  USELESS:          0
PSCL2 USEFUL LOAD PREFETCHES:          0 PREFETCH ISSUED TO LOWER LEVEL:          0  ACCURACY: -nan
PSCL2 TIMELY PREFETCHES:          0 LATE PREFETCHES: 0 DROPPED PREFETCHES: 0
PSCL2 PREFETCHES SAME FILL-ORIGIN LEVEL: 0 DIFFERENT FILL-ORIGIN LEVEL: 0

LLC TOTAL     ACCESS:    1136615  HIT:     273103  MISS:     863512  HIT %:    24.0277  MISS %:    75.9723   MPKI: 4.31756
LLC LOAD      ACCESS:      51295  HIT:       9183  MISS:      42112  HIT %:    17.9023  MISS %:    82.0977   MPKI: 0.21056
LLC RFO       ACCESS:     365681  HIT:      38881  MISS:     326800  HIT %:    10.6325  MISS %:    89.3675   MPKI: 1.634
LLC PREFETCH  ACCESS:     346678  HIT:      44842  MISS:     301836  HIT %:    12.9348  MISS %:    87.0652   MPKI: 1.50918
LLC WRITEBACK ACCESS:     371227  HIT:     179917  MISS:     191310  HIT %:    48.4655  MISS %:    51.5345   MPKI: 0.95655
LLC LOAD TRANSLATION ACCESS:       1207  HIT:        205  MISS:       1002  HIT %:    16.9843  MISS %:    83.0157   MPKI: 0.00501
LLC TRANSLATION FROM L1D PREFETCHER ACCESS:        527  HIT:         75  MISS:        452  HIT %:    14.2315  MISS %:    85.7685   MPKI: 0.00226
LLC PREFETCH  REQUESTED:          0  ISSUED:          0  USEFUL:       2677  USELESS:     301976
LLC USEFUL LOAD PREFETCHES:       2677 PREFETCH ISSUED TO LOWER LEVEL:     301836  ACCURACY: 0.886905
LLC TIMELY PREFETCHES:       2677 LATE PREFETCHES: 0 DROPPED PREFETCHES: 0
LLC PREFETCHES SAME FILL-ORIGIN LEVEL: 0 DIFFERENT FILL-ORIGIN LEVEL: 0
LLC AVERAGE MISS LATENCY: 162.284 cycles
LLC RQ	ACCESS:     418712	FORWARD:          0	MERGED:          0	TO_CACHE:     418712
LLC WQ	ACCESS:     371227	FORWARD:          0	MERGED:          0	TO_CACHE:     371227
LLC PQ	ACCESS:     346679	FORWARD:          0	MERGED:          0	TO_CACHE:     346679

LLC Dense regions hint to LLC: 0

RAW hits: 1812369
Loads Generated: 55430315
Loads sent to L1D: 53617945
Stores Generated: 25679661
Stores sent to L1D: 25679663
Major fault: 0 Minor fault: 2275
Allocated PAGES: 2275

DRAM Statistics
 CHANNEL 0
 RQ ROW_BUFFER_HIT:     139096  ROW_BUFFER_MISS:     532928
 DBUS_CONGESTED:         93
 WQ ROW_BUFFER_HIT:      49245  ROW_BUFFER_MISS:     251776  FULL:          0

 AVG_CONGESTED_CYCLE: 5
 All warmup complete: 2
Channel 0 Bank busy for read cycles: 0
Channel 0 Bank busy for write cycles: 0
Channel 0
Rank 0
0banks busy for read cycles: 532042789
0banks busy for write cycles: 2413
1banks busy for read cycles: 10426120
1banks busy for write cycles: 415458
2banks busy for read cycles: 16063106
2banks busy for write cycles: 246908
3banks busy for read cycles: 5632300
3banks busy for write cycles: 180967
4banks busy for read cycles: 3405480
4banks busy for write cycles: 165275
5banks busy for read cycles: 830028
5banks busy for write cycles: 168098
6banks busy for read cycles: 462483
6banks busy for write cycles: 199186
7banks busy for read cycles: 411906
7banks busy for write cycles: 635439
8banks busy for read cycles: 699071
8banks busy for write cycles: 6940350

CPU 0 Branch Prediction Accuracy: 87.9407% MPKI: 12.431 Average ROB Occupancy at Mispredict: 20.9731
Branch types
NOT_BRANCH: 166743419 83.3717%
BRANCH_DIRECT_JUMP: 1094608 0.547304%
BRANCH_INDIRECT: 6209 0.0031045%
BRANCH_CONDITIONAL: 20616346 10.3082%
BRANCH_DIRECT_CALL: 5769438 2.88472%
BRANCH_INDIRECT_CALL: 272 0.000136%
BRANCH_RETURN: 5769712 2.88486%
BRANCH_OTHER: 0 0%

DRAM PAGES: 1048576
Allocated PAGES: 2275
