
*** ChampSim Multicore Out-of-Order Simulator ***

Warmup Instructions: 50000000
Simulation Instructions: 200000000
Number of CPUs: 1
LLC sets: 2048
LLC ways: 16
Off-chip DRAM Size: 4096 MB Channels: 1 Width: 64-bit Data Rate: 6400 MT/s
argv[0]: ./ChampSim/Berti/bin/multiperspective_perceptron8kb-no-vberti-no-no-no-no-no-lru-lru-lru-srrip-drrip-lru-lru-lru-1core-no
argv[1]: -warmup_instructions
argv[2]: 50000000
argv[3]: -simulation_instructions
argv[4]: 200000000
argv[5]: -traces
argv[6]: traces/spec2k17_ten/641.leela_s-149B.champsimtrace.xz
CPU 0 runs traces/spec2k17_ten/641.leela_s-149B.champsimtrace.xz
.xz
CPU 0 Multiperspective perceptron branch predictor
BTB has LRU replacement policy
ITLB has LRU replacement policy
DTLB has LRU replacement policy
STLB has LRU replacement policy
L1I has LRU replacement policy
History Sets: 8
History Ways: 16
BERTI Size: 16
BERTI Stride Size: 16
L1D has LRU replacement policy
Initialize SRRIP state for L2C
Initialize DRRIP state for LLC
Heartbeat CPU 0 instructions: 10000002 cycles: 3153779 heartbeat IPC: 3.1708 cumulative IPC: 3.1708 (Simulation time: 0 hr 8 min 44 sec) 
Heartbeat CPU 0 instructions: 20000002 cycles: 6880639 heartbeat IPC: 2.68322 cumulative IPC: 2.90671 (Simulation time: 0 hr 16 min 52 sec) 
Heartbeat CPU 0 instructions: 30000003 cycles: 10198133 heartbeat IPC: 3.01432 cumulative IPC: 2.94172 (Simulation time: 0 hr 23 min 24 sec) 
Heartbeat CPU 0 instructions: 40000000 cycles: 13429084 heartbeat IPC: 3.09506 cumulative IPC: 2.97861 (Simulation time: 0 hr 28 min 19 sec) 
Heartbeat CPU 0 instructions: 50000003 cycles: 16660845 heartbeat IPC: 3.09429 cumulative IPC: 3.00105 (Simulation time: 0 hr 34 min 6 sec) 

Warmup complete CPU 0 instructions: 50000003 cycles: 16660845 (Simulation time: 0 hr 34 min 6 sec) 

Heartbeat CPU 0 instructions: 60000001 cycles: 44756491 heartbeat IPC: 0.355927 cumulative IPC: 0.355927 (Simulation time: 0 hr 40 min 58 sec) 
Heartbeat CPU 0 instructions: 70000002 cycles: 72826539 heartbeat IPC: 0.356252 cumulative IPC: 0.356089 (Simulation time: 0 hr 47 min 55 sec) 
Heartbeat CPU 0 instructions: 80000000 cycles: 100833667 heartbeat IPC: 0.357052 cumulative IPC: 0.35641 (Simulation time: 0 hr 56 min 27 sec) 
Heartbeat CPU 0 instructions: 90000000 cycles: 128780601 heartbeat IPC: 0.357821 cumulative IPC: 0.356761 (Simulation time: 1 hr 5 min 36 sec) 
Heartbeat CPU 0 instructions: 100000001 cycles: 156662688 heartbeat IPC: 0.358653 cumulative IPC: 0.357138 (Simulation time: 1 hr 14 min 43 sec) 
Heartbeat CPU 0 instructions: 110000000 cycles: 184736819 heartbeat IPC: 0.3562 cumulative IPC: 0.356981 (Simulation time: 1 hr 22 min 12 sec) 
Heartbeat CPU 0 instructions: 120000001 cycles: 212623055 heartbeat IPC: 0.3586 cumulative IPC: 0.357212 (Simulation time: 1 hr 31 min 6 sec) 
Heartbeat CPU 0 instructions: 130000001 cycles: 240541917 heartbeat IPC: 0.358181 cumulative IPC: 0.357333 (Simulation time: 1 hr 36 min 20 sec) 
Heartbeat CPU 0 instructions: 140000000 cycles: 268460097 heartbeat IPC: 0.358189 cumulative IPC: 0.357428 (Simulation time: 1 hr 42 min 4 sec) 
Heartbeat CPU 0 instructions: 150000000 cycles: 296179821 heartbeat IPC: 0.360754 cumulative IPC: 0.357757 (Simulation time: 1 hr 49 min 7 sec) 
Heartbeat CPU 0 instructions: 160000003 cycles: 323906260 heartbeat IPC: 0.360667 cumulative IPC: 0.35802 (Simulation time: 1 hr 55 min 55 sec) 
Heartbeat CPU 0 instructions: 170000000 cycles: 351690970 heartbeat IPC: 0.35991 cumulative IPC: 0.358177 (Simulation time: 2 hr 1 min 31 sec) 
Heartbeat CPU 0 instructions: 180000000 cycles: 379643251 heartbeat IPC: 0.357753 cumulative IPC: 0.358144 (Simulation time: 2 hr 7 min 9 sec) 
Heartbeat CPU 0 instructions: 190000000 cycles: 407337117 heartbeat IPC: 0.361091 cumulative IPC: 0.358353 (Simulation time: 2 hr 12 min 51 sec) 
Heartbeat CPU 0 instructions: 200000003 cycles: 435022081 heartbeat IPC: 0.361207 cumulative IPC: 0.358542 (Simulation time: 2 hr 17 min 53 sec) 
Heartbeat CPU 0 instructions: 210000000 cycles: 462602178 heartbeat IPC: 0.36258 cumulative IPC: 0.358792 (Simulation time: 2 hr 25 min 47 sec) 
Heartbeat CPU 0 instructions: 220000000 cycles: 490237537 heartbeat IPC: 0.361855 cumulative IPC: 0.35897 (Simulation time: 2 hr 32 min 50 sec) 
Heartbeat CPU 0 instructions: 230000001 cycles: 517885272 heartbeat IPC: 0.361693 cumulative IPC: 0.359121 (Simulation time: 2 hr 40 min 46 sec) 
Heartbeat CPU 0 instructions: 240000000 cycles: 545432468 heartbeat IPC: 0.363013 cumulative IPC: 0.359323 (Simulation time: 2 hr 47 min 12 sec) 
Heartbeat CPU 0 instructions: 250000000 cycles: 573138967 heartbeat IPC: 0.360926 cumulative IPC: 0.359403 (Simulation time: 2 hr 55 min 12 sec) 
Finished CPU 0 instructions: 200000000 cycles: 556478160 cumulative IPC: 0.359403 (Simulation time: 2 hr 55 min 12 sec) 

ChampSim completed all CPUs

Region of Interest Statistics

CPU 0 cumulative IPC: 0.359403 instructions: 200000000 cycles: 556478160
ITLB TOTAL     ACCESS:   35214646  HIT:   35214646  MISS:          0  HIT %:        100  MISS %:          0   MPKI: 0
ITLB LOAD TRANSLATION ACCESS:   35214646  HIT:   35214646  MISS:          0  HIT %:        100  MISS %:          0   MPKI: 0
ITLB PREFETCH  REQUESTED:          0  ISSUED:          0  USEFUL:          0  USELESS:          0
ITLB USEFUL LOAD PREFETCHES:          0 PREFETCH ISSUED TO LOWER LEVEL:          0  ACCURACY: -nan
ITLB TIMELY PREFETCHES:          0 LATE PREFETCHES: 0 DROPPED PREFETCHES: 0
ITLB PREFETCHES SAME FILL-ORIGIN LEVEL: 0 DIFFERENT FILL-ORIGIN LEVEL: 0
ITLB AVERAGE MISS LATENCY: -nan cycles
ITLB RQ	ACCESS:   40388288	FORWARD:          0	MERGED:    5173643	TO_CACHE:   35214645

DTLB TOTAL     ACCESS:   56025348  HIT:   55940445  MISS:      84903  HIT %:    99.8485  MISS %:   0.151544   MPKI: 0.424515
DTLB LOAD TRANSLATION ACCESS:   56025348  HIT:   55940445  MISS:      84903  HIT %:    99.8485  MISS %:   0.151544   MPKI: 0.424515
DTLB PREFETCH  REQUESTED:          0  ISSUED:          0  USEFUL:          0  USELESS:          0
DTLB USEFUL LOAD PREFETCHES:          0 PREFETCH ISSUED TO LOWER LEVEL:          0  ACCURACY: -nan
DTLB TIMELY PREFETCHES:          0 LATE PREFETCHES: 0 DROPPED PREFETCHES: 0
DTLB PREFETCHES SAME FILL-ORIGIN LEVEL: 0 DIFFERENT FILL-ORIGIN LEVEL: 0
DTLB AVERAGE MISS LATENCY: 9.3561 cycles
DTLB RQ	ACCESS:   63535063	FORWARD:          0	MERGED:    7507829	TO_CACHE:   56027234

STLB TOTAL     ACCESS:    1269363  HIT:    1269041  MISS:        322  HIT %:    99.9746  MISS %:  0.0253671   MPKI: 0.00161
STLB LOAD TRANSLATION ACCESS:      84903  HIT:      84581  MISS:        322  HIT %:    99.6207  MISS %:   0.379256   MPKI: 0.00161
STLB TRANSLATION FROM L1D PREFETCHER ACCESS:    1184460  HIT:    1184460  MISS:          0  HIT %:        100  MISS %:          0   MPKI: 0
STLB PREFETCH  REQUESTED:          0  ISSUED:          0  USEFUL:          0  USELESS:          0
STLB USEFUL LOAD PREFETCHES:          0 PREFETCH ISSUED TO LOWER LEVEL:          0  ACCURACY: -nan
STLB TIMELY PREFETCHES:          0 LATE PREFETCHES: 0 DROPPED PREFETCHES: 8182
STLB PREFETCHES SAME FILL-ORIGIN LEVEL: 0 DIFFERENT FILL-ORIGIN LEVEL: 0
STLB AVERAGE MISS LATENCY: 132.329 cycles
STLB RQ	ACCESS:    5107203	FORWARD:          0	MERGED:    3829388	TO_CACHE:    1277815

STLB Hit, L1D data hit: 0
STLB Hit, L2C data hit: 0
STLB Hit, LLC data hit: 0
STLB Hit, LLC data miss: 0
STLB STLB hints to L2: 0
L1D TOTAL     ACCESS:   66944140  HIT:   66675169  MISS:     268971  HIT %:    99.5982  MISS %:   0.401784   MPKI: 1.34485
L1D LOAD      ACCESS:   39875241  HIT:   39672223  MISS:     203018  HIT %:    99.4909  MISS %:   0.509133   MPKI: 1.01509
L1D RFO       ACCESS:   23641393  HIT:   23603568  MISS:      37825  HIT %:      99.84  MISS %:   0.159995   MPKI: 0.189125
L1D PREFETCH  ACCESS:    3427506  HIT:    3399378  MISS:      28128  HIT %:    99.1793  MISS %:   0.820655   MPKI: 0.14064
L1D PREFETCH  REQUESTED:   10296279  ISSUED:   10296279  USEFUL:      14949  USELESS:      13170
L1D USEFUL LOAD PREFETCHES:      14949 PREFETCH ISSUED TO LOWER LEVEL:    1612330  ACCURACY: 0.927168
L1D TIMELY PREFETCHES:      14949 LATE PREFETCHES: 88 DROPPED PREFETCHES: 9978
L1D PREFETCHES SAME FILL-ORIGIN LEVEL: 28216 DIFFERENT FILL-ORIGIN LEVEL: 1584114
L1D AVERAGE MISS LATENCY: 16.1463 cycles
L1D RQ	ACCESS:   52062613	FORWARD:          0	MERGED:   10071192	TO_CACHE:   39876853
L1D WQ	ACCESS:   24000937	FORWARD:    2114615	MERGED:     342727	TO_CACHE:   23658210
L1D PQ	ACCESS:    5273979	FORWARD:          0	MERGED:     251632	TO_CACHE:    5022300

L1D UNIQUE REGIONS ACCESSED: 0
L1D REGIONS CONFLICTS: 0
L1D Cross Page Prefetch Requests: 1135958
L1D Same Page Prefetch Requests: 8857466
L1D ROI Sum of L1D PQ occupancy: 71959507
L1D PREFETCHES PUSHED FROM L2C: 0
L1I TOTAL     ACCESS:   40370343  HIT:   40328481  MISS:      41862  HIT %:    99.8963  MISS %:   0.103695   MPKI: 0.20931
L1I LOAD      ACCESS:   40370343  HIT:   40328481  MISS:      41862  HIT %:    99.8963  MISS %:   0.103695   MPKI: 0.20931
L1I PREFETCH  REQUESTED:          0  ISSUED:          0  USEFUL:          0  USELESS:          0
L1I USEFUL LOAD PREFETCHES:          0 PREFETCH ISSUED TO LOWER LEVEL:          0  ACCURACY: -nan
L1I TIMELY PREFETCHES:          0 LATE PREFETCHES: 0 DROPPED PREFETCHES: 0
L1I PREFETCHES SAME FILL-ORIGIN LEVEL: 0 DIFFERENT FILL-ORIGIN LEVEL: 0
L1I AVERAGE MISS LATENCY: 14.0167 cycles
L1I RQ	ACCESS:   57149313	FORWARD:          0	MERGED:   16761025	TO_CACHE:   40388288

BTB TOTAL     ACCESS:   31355940  HIT:   29137042  MISS:    2218898  HIT %:    92.9235  MISS %:    7.07648   MPKI: 11.0945
BTB BRANCH_DIRECT_JUMP	ACCESS:    1150388  HIT:    1150314  MISS:         74
BTB BRANCH_INDIRECT	ACCESS:       4209  HIT:       4065  MISS:        144
BTB BRANCH_CONDITIONAL	ACCESS:   18692451  HIT:   18688527  MISS:       3924
BTB BRANCH_DIRECT_CALL	ACCESS:    5754446  HIT:    5752632  MISS:       1814
BTB BRANCH_INDIRECT_CALL	ACCESS:          0  HIT:          0  MISS:          0
BTB BRANCH_RETURN	ACCESS:    5754446  HIT:    3541504  MISS:    2212942
BTB BRANCH_OTHER ACCESS:          0  HIT:          0  MISS:          0

L2C TOTAL     ACCESS:    1958940  HIT:    1954236  MISS:       4704  HIT %:    99.7599  MISS %:    0.24013   MPKI: 0.02352
L2C LOAD      ACCESS:     244790  HIT:     242490  MISS:       2300  HIT %:    99.0604  MISS %:   0.939581   MPKI: 0.0115
L2C DATA LOAD MPKI: 0.011445
L2C INSTRUCTION LOAD MPKI: 5.5e-05
L2C RFO       ACCESS:      37824  HIT:      36868  MISS:        956  HIT %:    97.4725  MISS %:     2.5275   MPKI: 0.00478
L2C PREFETCH  ACCESS:    1612254  HIT:    1610970  MISS:       1284  HIT %:    99.9204  MISS %:  0.0796401   MPKI: 0.00642
L2C DATA PREFETCH MPKI: 0.00642
L2C INSTRUCTION PREFETCH MPKI: 0
L2C WRITEBACK ACCESS:      55568  HIT:      55534  MISS:         34  HIT %:    99.9388  MISS %:  0.0611863   MPKI: 0.00017
L2C LOAD TRANSLATION ACCESS:        322  HIT:        217  MISS:        105  HIT %:    67.3913  MISS %:    32.6087   MPKI: 0.000525
L2C TRANSLATION FROM L1D PREFETCHER ACCESS:       8182  HIT:       8157  MISS:         25  HIT %:    99.6945  MISS %:   0.305549   MPKI: 0.000125
L2C PREFETCH  REQUESTED:          0  ISSUED:          0  USEFUL:        126  USELESS:       1292
L2C USEFUL LOAD PREFETCHES:        126 PREFETCH ISSUED TO LOWER LEVEL:       1287  ACCURACY: 9.79021
L2C TIMELY PREFETCHES:        126 LATE PREFETCHES: 3 DROPPED PREFETCHES: 0
L2C PREFETCHES SAME FILL-ORIGIN LEVEL: 1153 DIFFERENT FILL-ORIGIN LEVEL: 0
L2C AVERAGE MISS LATENCY: 75.1522 cycles
L2C RQ	ACCESS:     291121	FORWARD:          0	MERGED:          0	TO_CACHE:     291118
L2C WQ	ACCESS:      55568	FORWARD:          3	MERGED:          0	TO_CACHE:      55568
L2C PQ	ACCESS:    1612330	FORWARD:          0	MERGED:         56	TO_CACHE:    1612274

L2C Instructions Evicting Data 10
L2C Translations Evicting Data 123
L2C Data Evicting Data 4325
L2C Instructions Evicting Instructions 1
L2C Translations Evicting Instructions 7
L2C Data Evicting Instructions 129
L2C Instructions Evicting Translations 0
L2C Translations Evicting Translations 0
L2C Data Evicting Translations 75
L2C Dense regions hint from L2: 0
PSCL5 TOTAL     ACCESS:       8504  HIT:       8504  MISS:          0  HIT %:        100  MISS %:          0   MPKI: 0
PSCL5 LOAD TRANSLATION ACCESS:        322  HIT:        322  MISS:          0  HIT %:        100  MISS %:          0   MPKI: 0
PSCL5 TRANSLATION FROM L1D PREFETCHER ACCESS:       8182  HIT:       8182  MISS:          0  HIT %:        100  MISS %:          0   MPKI: 0
PSCL5 PREFETCH  REQUESTED:          0  ISSUED:          0  USEFUL:          0  USELESS:          0
PSCL5 USEFUL LOAD PREFETCHES:          0 PREFETCH ISSUED TO LOWER LEVEL:          0  ACCURACY: -nan
PSCL5 TIMELY PREFETCHES:          0 LATE PREFETCHES: 0 DROPPED PREFETCHES: 0
PSCL5 PREFETCHES SAME FILL-ORIGIN LEVEL: 0 DIFFERENT FILL-ORIGIN LEVEL: 0

PSCL4 TOTAL     ACCESS:       8504  HIT:       8504  MISS:          0  HIT %:        100  MISS %:          0   MPKI: 0
PSCL4 LOAD TRANSLATION ACCESS:        322  HIT:        322  MISS:          0  HIT %:        100  MISS %:          0   MPKI: 0
PSCL4 TRANSLATION FROM L1D PREFETCHER ACCESS:       8182  HIT:       8182  MISS:          0  HIT %:        100  MISS %:          0   MPKI: 0
PSCL4 PREFETCH  REQUESTED:          0  ISSUED:          0  USEFUL:          0  USELESS:          0
PSCL4 USEFUL LOAD PREFETCHES:          0 PREFETCH ISSUED TO LOWER LEVEL:          0  ACCURACY: -nan
PSCL4 TIMELY PREFETCHES:          0 LATE PREFETCHES: 0 DROPPED PREFETCHES: 0
PSCL4 PREFETCHES SAME FILL-ORIGIN LEVEL: 0 DIFFERENT FILL-ORIGIN LEVEL: 0

PSCL3 TOTAL     ACCESS:       8504  HIT:       8504  MISS:          0  HIT %:        100  MISS %:          0   MPKI: 0
PSCL3 LOAD TRANSLATION ACCESS:        322  HIT:        322  MISS:          0  HIT %:        100  MISS %:          0   MPKI: 0
PSCL3 TRANSLATION FROM L1D PREFETCHER ACCESS:       8182  HIT:       8182  MISS:          0  HIT %:        100  MISS %:          0   MPKI: 0
PSCL3 PREFETCH  REQUESTED:          0  ISSUED:          0  USEFUL:          0  USELESS:          0
PSCL3 USEFUL LOAD PREFETCHES:          0 PREFETCH ISSUED TO LOWER LEVEL:          0  ACCURACY: -nan
PSCL3 TIMELY PREFETCHES:          0 LATE PREFETCHES: 0 DROPPED PREFETCHES: 0
PSCL3 PREFETCHES SAME FILL-ORIGIN LEVEL: 0 DIFFERENT FILL-ORIGIN LEVEL: 0

PSCL2 TOTAL     ACCESS:       8502  HIT:       8502  MISS:          0  HIT %:        100  MISS %:          0   MPKI: 0
PSCL2 LOAD TRANSLATION ACCESS:        322  HIT:        322  MISS:          0  HIT %:        100  MISS %:          0   MPKI: 0
PSCL2 TRANSLATION FROM L1D PREFETCHER ACCESS:       8180  HIT:       8180  MISS:          0  HIT %:        100  MISS %:          0   MPKI: 0
PSCL2 PREFETCH  REQUESTED:          0  ISSUED:          0  USEFUL:          0  USELESS:          0
PSCL2 USEFUL LOAD PREFETCHES:          0 PREFETCH ISSUED TO LOWER LEVEL:          0  ACCURACY: -nan
PSCL2 TIMELY PREFETCHES:          0 LATE PREFETCHES: 0 DROPPED PREFETCHES: 0
PSCL2 PREFETCHES SAME FILL-ORIGIN LEVEL: 0 DIFFERENT FILL-ORIGIN LEVEL: 0

LLC TOTAL     ACCESS:       7122  HIT:       5813  MISS:       1309  HIT %:    81.6203  MISS %:    18.3797   MPKI: 0.006545
LLC LOAD      ACCESS:       2297  HIT:       1102  MISS:       1195  HIT %:    47.9756  MISS %:    52.0244   MPKI: 0.005975
LLC RFO       ACCESS:        956  HIT:        951  MISS:          5  HIT %:     99.477  MISS %:   0.523013   MPKI: 2.5e-05
LLC PREFETCH  ACCESS:       1287  HIT:       1211  MISS:         76  HIT %:    94.0948  MISS %:    5.90521   MPKI: 0.00038
LLC WRITEBACK ACCESS:       2452  HIT:       2448  MISS:          4  HIT %:    99.8369  MISS %:   0.163132   MPKI: 2e-05
LLC LOAD TRANSLATION ACCESS:        105  HIT:         82  MISS:         23  HIT %:    78.0952  MISS %:    21.9048   MPKI: 0.000115
LLC TRANSLATION FROM L1D PREFETCHER ACCESS:         25  HIT:         19  MISS:          6  HIT %:         76  MISS %:         24   MPKI: 3e-05
LLC PREFETCH  REQUESTED:          0  ISSUED:          0  USEFUL:        873  USELESS:        103
LLC USEFUL LOAD PREFETCHES:        873 PREFETCH ISSUED TO LOWER LEVEL:         76  ACCURACY: 1148.68
LLC TIMELY PREFETCHES:        873 LATE PREFETCHES: 0 DROPPED PREFETCHES: 0
LLC PREFETCHES SAME FILL-ORIGIN LEVEL: 0 DIFFERENT FILL-ORIGIN LEVEL: 0
LLC AVERAGE MISS LATENCY: 163.063 cycles
LLC RQ	ACCESS:       3383	FORWARD:          0	MERGED:          0	TO_CACHE:       3383
LLC WQ	ACCESS:       2452	FORWARD:          0	MERGED:          0	TO_CACHE:       2452
LLC PQ	ACCESS:       1287	FORWARD:          0	MERGED:          0	TO_CACHE:       1287

LLC Dense regions hint to LLC: 0

RAW hits: 1823330
Loads Generated: 53885944
Loads sent to L1D: 52062613
Stores Generated: 24000930
Stores sent to L1D: 24000937
Major fault: 0 Minor fault: 1195
Allocated PAGES: 1195

DRAM Statistics
 CHANNEL 0
 RQ ROW_BUFFER_HIT:         84  ROW_BUFFER_MISS:       1221
 DBUS_CONGESTED:          0
 WQ ROW_BUFFER_HIT:          5  ROW_BUFFER_MISS:        401  FULL:          0

 AVG_CONGESTED_CYCLE: -
 All warmup complete: 2
Channel 0 Bank busy for read cycles: 0
Channel 0 Bank busy for write cycles: 0
Channel 0
Rank 0
0banks busy for read cycles: 556229613
0banks busy for write cycles: 406
1banks busy for read cycles: 186958
1banks busy for write cycles: 60988
2banks busy for read cycles: 196
2banks busy for write cycles: 0
3banks busy for read cycles: 0
3banks busy for write cycles: 0
4banks busy for read cycles: 0
4banks busy for write cycles: 0
5banks busy for read cycles: 0
5banks busy for write cycles: 0
6banks busy for read cycles: 0
6banks busy for write cycles: 0
7banks busy for read cycles: 0
7banks busy for write cycles: 0
8banks busy for read cycles: 0
8banks busy for write cycles: 0

CPU 0 Branch Prediction Accuracy: 87.7448% MPKI: 12.521 Average ROB Occupancy at Mispredict: 21.0544
Branch types
NOT_BRANCH: 166902414 83.4512%
BRANCH_DIRECT_JUMP: 1150388 0.575194%
BRANCH_INDIRECT: 4209 0.0021045%
BRANCH_CONDITIONAL: 20433729 10.2169%
BRANCH_DIRECT_CALL: 5754446 2.87722%
BRANCH_INDIRECT_CALL: 0 0%
BRANCH_RETURN: 5754446 2.87722%
BRANCH_OTHER: 0 0%

DRAM PAGES: 1048576
Allocated PAGES: 1195
