
*** ChampSim Multicore Out-of-Order Simulator ***

Warmup Instructions: 50000000
Simulation Instructions: 200000000
Number of CPUs: 1
LLC sets: 2048
LLC ways: 16
Off-chip DRAM Size: 4096 MB Channels: 1 Width: 64-bit Data Rate: 6400 MT/s
argv[0]: ./ChampSim/Berti/bin/multiperspective_perceptron8kb-no-vberti-no-no-no-no-no-lru-lru-lru-srrip-drrip-lru-lru-lru-1core-no
argv[1]: -warmup_instructions
argv[2]: 50000000
argv[3]: -simulation_instructions
argv[4]: 200000000
argv[5]: -traces
argv[6]: traces/spec2k17_ten/641.leela_s-602B.champsimtrace.xz
CPU 0 runs traces/spec2k17_ten/641.leela_s-602B.champsimtrace.xz
.xz
CPU 0 Multiperspective perceptron branch predictor
BTB has LRU replacement policy
ITLB has LRU replacement policy
DTLB has LRU replacement policy
STLB has LRU replacement policy
L1I has LRU replacement policy
History Sets: 8
History Ways: 16
BERTI Size: 16
BERTI Stride Size: 16
L1D has LRU replacement policy
Initialize SRRIP state for L2C
Initialize DRRIP state for LLC
Heartbeat CPU 0 instructions: 10000001 cycles: 3217237 heartbeat IPC: 3.10826 cumulative IPC: 3.10826 (Simulation time: 0 hr 3 min 28 sec) 
Heartbeat CPU 0 instructions: 20000002 cycles: 6416948 heartbeat IPC: 3.12528 cumulative IPC: 3.11675 (Simulation time: 0 hr 12 min 18 sec) 
Heartbeat CPU 0 instructions: 30000000 cycles: 9604814 heartbeat IPC: 3.13689 cumulative IPC: 3.12343 (Simulation time: 0 hr 18 min 27 sec) 
Heartbeat CPU 0 instructions: 40000001 cycles: 12800679 heartbeat IPC: 3.12904 cumulative IPC: 3.12483 (Simulation time: 0 hr 23 min 50 sec) 
Heartbeat CPU 0 instructions: 50000000 cycles: 15985874 heartbeat IPC: 3.13952 cumulative IPC: 3.12776 (Simulation time: 0 hr 28 min 39 sec) 

Warmup complete CPU 0 instructions: 50000004 cycles: 15985875 (Simulation time: 0 hr 28 min 39 sec) 

Heartbeat CPU 0 instructions: 60000000 cycles: 42645841 heartbeat IPC: 0.375094 cumulative IPC: 0.375094 (Simulation time: 0 hr 35 min 44 sec) 
Heartbeat CPU 0 instructions: 70000000 cycles: 69273540 heartbeat IPC: 0.375549 cumulative IPC: 0.375321 (Simulation time: 0 hr 41 min 14 sec) 
Heartbeat CPU 0 instructions: 80000001 cycles: 95656304 heartbeat IPC: 0.379035 cumulative IPC: 0.376551 (Simulation time: 0 hr 48 min 34 sec) 
Heartbeat CPU 0 instructions: 90000000 cycles: 122282514 heartbeat IPC: 0.37557 cumulative IPC: 0.376305 (Simulation time: 0 hr 56 min 44 sec) 
Heartbeat CPU 0 instructions: 100000001 cycles: 149582276 heartbeat IPC: 0.366304 cumulative IPC: 0.374262 (Simulation time: 1 hr 5 min 51 sec) 
Heartbeat CPU 0 instructions: 110000000 cycles: 177096179 heartbeat IPC: 0.363453 cumulative IPC: 0.372416 (Simulation time: 1 hr 13 min 40 sec) 
Heartbeat CPU 0 instructions: 120000001 cycles: 204528951 heartbeat IPC: 0.364528 cumulative IPC: 0.371268 (Simulation time: 1 hr 20 min 46 sec) 
Heartbeat CPU 0 instructions: 130000003 cycles: 231302955 heartbeat IPC: 0.373497 cumulative IPC: 0.371545 (Simulation time: 1 hr 29 min 8 sec) 
Heartbeat CPU 0 instructions: 140000000 cycles: 257804583 heartbeat IPC: 0.377335 cumulative IPC: 0.37218 (Simulation time: 1 hr 33 min 53 sec) 
Heartbeat CPU 0 instructions: 150000002 cycles: 284451888 heartbeat IPC: 0.375273 cumulative IPC: 0.372487 (Simulation time: 1 hr 39 min 33 sec) 
Heartbeat CPU 0 instructions: 160000003 cycles: 311432618 heartbeat IPC: 0.370635 cumulative IPC: 0.372318 (Simulation time: 1 hr 44 min 42 sec) 
Heartbeat CPU 0 instructions: 170000003 cycles: 338048959 heartbeat IPC: 0.375709 cumulative IPC: 0.372598 (Simulation time: 1 hr 51 min 4 sec) 
Heartbeat CPU 0 instructions: 180000000 cycles: 364480068 heartbeat IPC: 0.378342 cumulative IPC: 0.373033 (Simulation time: 1 hr 56 min 48 sec) 
Heartbeat CPU 0 instructions: 190000003 cycles: 401956237 heartbeat IPC: 0.266836 cumulative IPC: 0.362722 (Simulation time: 2 hr 3 min 49 sec) 
Heartbeat CPU 0 instructions: 200000001 cycles: 431366364 heartbeat IPC: 0.340019 cumulative IPC: 0.361115 (Simulation time: 2 hr 10 min 47 sec) 
Heartbeat CPU 0 instructions: 210000000 cycles: 459951794 heartbeat IPC: 0.349829 cumulative IPC: 0.360388 (Simulation time: 2 hr 18 min 33 sec) 
Heartbeat CPU 0 instructions: 220000000 cycles: 488430236 heartbeat IPC: 0.351143 cumulative IPC: 0.359831 (Simulation time: 2 hr 27 min 26 sec) 
Heartbeat CPU 0 instructions: 230000000 cycles: 516945390 heartbeat IPC: 0.350691 cumulative IPC: 0.35931 (Simulation time: 2 hr 33 min 11 sec) 
Heartbeat CPU 0 instructions: 240000001 cycles: 545428165 heartbeat IPC: 0.351089 cumulative IPC: 0.358868 (Simulation time: 2 hr 39 min 29 sec) 
Heartbeat CPU 0 instructions: 250000000 cycles: 573810843 heartbeat IPC: 0.352328 cumulative IPC: 0.358535 (Simulation time: 2 hr 45 min 54 sec) 
Finished CPU 0 instructions: 200000002 cycles: 557825025 cumulative IPC: 0.358535 (Simulation time: 2 hr 45 min 55 sec) 

ChampSim completed all CPUs

Region of Interest Statistics

CPU 0 cumulative IPC: 0.358535 instructions: 200000002 cycles: 557825025
ITLB TOTAL     ACCESS:   36185571  HIT:   36185097  MISS:        474  HIT %:    99.9987  MISS %: 0.00130991   MPKI: 0.00237
ITLB LOAD TRANSLATION ACCESS:   36185571  HIT:   36185097  MISS:        474  HIT %:    99.9987  MISS %: 0.00130991   MPKI: 0.00237
ITLB PREFETCH  REQUESTED:          0  ISSUED:          0  USEFUL:          0  USELESS:          0
ITLB USEFUL LOAD PREFETCHES:          0 PREFETCH ISSUED TO LOWER LEVEL:          0  ACCURACY: -nan
ITLB TIMELY PREFETCHES:          0 LATE PREFETCHES: 0 DROPPED PREFETCHES: 0
ITLB PREFETCHES SAME FILL-ORIGIN LEVEL: 0 DIFFERENT FILL-ORIGIN LEVEL: 0
ITLB AVERAGE MISS LATENCY: 26.2975 cycles
ITLB RQ	ACCESS:   41390997	FORWARD:          0	MERGED:    5205329	TO_CACHE:   36185668

DTLB TOTAL     ACCESS:   56598752  HIT:   56463160  MISS:     135592  HIT %:    99.7604  MISS %:   0.239567   MPKI: 0.67796
DTLB LOAD TRANSLATION ACCESS:   56598752  HIT:   56463160  MISS:     135592  HIT %:    99.7604  MISS %:   0.239567   MPKI: 0.67796
DTLB PREFETCH  REQUESTED:          0  ISSUED:          0  USEFUL:          0  USELESS:          0
DTLB USEFUL LOAD PREFETCHES:          0 PREFETCH ISSUED TO LOWER LEVEL:          0  ACCURACY: -nan
DTLB TIMELY PREFETCHES:          0 LATE PREFETCHES: 0 DROPPED PREFETCHES: 0
DTLB PREFETCHES SAME FILL-ORIGIN LEVEL: 0 DIFFERENT FILL-ORIGIN LEVEL: 0
DTLB AVERAGE MISS LATENCY: 9.64246 cycles
DTLB RQ	ACCESS:   63957833	FORWARD:          0	MERGED:    7352397	TO_CACHE:   56605436

STLB TOTAL     ACCESS:    2283820  HIT:    2282971  MISS:        849  HIT %:    99.9628  MISS %:  0.0371746   MPKI: 0.004245
STLB LOAD TRANSLATION ACCESS:     136066  HIT:     135217  MISS:        849  HIT %:     99.376  MISS %:   0.623962   MPKI: 0.004245
STLB TRANSLATION FROM L1D PREFETCHER ACCESS:    2147754  HIT:    2147754  MISS:          0  HIT %:        100  MISS %:          0   MPKI: 0
STLB PREFETCH  REQUESTED:          0  ISSUED:          0  USEFUL:          0  USELESS:          0
STLB USEFUL LOAD PREFETCHES:          0 PREFETCH ISSUED TO LOWER LEVEL:          0  ACCURACY: -nan
STLB TIMELY PREFETCHES:          0 LATE PREFETCHES: 74 DROPPED PREFETCHES: 58437
STLB PREFETCHES SAME FILL-ORIGIN LEVEL: 0 DIFFERENT FILL-ORIGIN LEVEL: 0
STLB AVERAGE MISS LATENCY: 130.914 cycles
STLB RQ	ACCESS:   12542070	FORWARD:          0	MERGED:   10192018	TO_CACHE:    2350052

STLB Hit, L1D data hit: 0
STLB Hit, L2C data hit: 0
STLB Hit, LLC data hit: 0
STLB Hit, LLC data miss: 0
STLB STLB hints to L2: 0
L1D TOTAL     ACCESS:   73834638  HIT:   73202967  MISS:     631671  HIT %:    99.1445  MISS %:   0.855521   MPKI: 3.15835
L1D LOAD      ACCESS:   39573023  HIT:   39313700  MISS:     259323  HIT %:    99.3447  MISS %:   0.655302   MPKI: 1.29661
L1D RFO       ACCESS:   24033197  HIT:   23843268  MISS:     189929  HIT %:    99.2097  MISS %:   0.790278   MPKI: 0.949645
L1D PREFETCH  ACCESS:   10228418  HIT:   10045999  MISS:     182419  HIT %:    98.2165  MISS %:    1.78345   MPKI: 0.912095
L1D PREFETCH  REQUESTED:   25484616  ISSUED:   25483570  USEFUL:     166622  USELESS:      15811
L1D USEFUL LOAD PREFETCHES:     166622 PREFETCH ISSUED TO LOWER LEVEL:    2076725  ACCURACY: 8.02331
L1D TIMELY PREFETCHES:     166622 LATE PREFETCHES: 568 DROPPED PREFETCHES: 116227
L1D PREFETCHES SAME FILL-ORIGIN LEVEL: 182987 DIFFERENT FILL-ORIGIN LEVEL: 1893738
L1D AVERAGE MISS LATENCY: 29.0811 cycles
L1D RQ	ACCESS:   51523738	FORWARD:          0	MERGED:    9814032	TO_CACHE:   39579660
L1D WQ	ACCESS:   24739865	FORWARD:    2130049	MERGED:     361692	TO_CACHE:   24378173
L1D PQ	ACCESS:   13077566	FORWARD:          0	MERGED:     671559	TO_CACHE:   12406004

L1D UNIQUE REGIONS ACCESSED: 0
L1D REGIONS CONFLICTS: 0
L1D Cross Page Prefetch Requests: 1741816
L1D Same Page Prefetch Requests: 13568188
L1D ROI Sum of L1D PQ occupancy: 182968893
L1D PREFETCHES PUSHED FROM L2C: 0
L1I TOTAL     ACCESS:   41372347  HIT:   41317833  MISS:      54514  HIT %:    99.8682  MISS %:   0.131764   MPKI: 0.27257
L1I LOAD      ACCESS:   41372347  HIT:   41317833  MISS:      54514  HIT %:    99.8682  MISS %:   0.131764   MPKI: 0.27257
L1I PREFETCH  REQUESTED:          0  ISSUED:          0  USEFUL:          0  USELESS:          0
L1I USEFUL LOAD PREFETCHES:          0 PREFETCH ISSUED TO LOWER LEVEL:          0  ACCURACY: -nan
L1I TIMELY PREFETCHES:          0 LATE PREFETCHES: 0 DROPPED PREFETCHES: 0
L1I PREFETCHES SAME FILL-ORIGIN LEVEL: 0 DIFFERENT FILL-ORIGIN LEVEL: 0
L1I AVERAGE MISS LATENCY: 18.3098 cycles
L1I RQ	ACCESS:   58330946	FORWARD:          0	MERGED:   16939949	TO_CACHE:   41390997

BTB TOTAL     ACCESS:   31508168  HIT:   29228031  MISS:    2280137  HIT %:    92.7633  MISS %:    7.23665   MPKI: 11.4007
BTB BRANCH_DIRECT_JUMP	ACCESS:    1239661  HIT:    1239439  MISS:        222
BTB BRANCH_INDIRECT	ACCESS:       6867  HIT:       5809  MISS:       1058
BTB BRANCH_CONDITIONAL	ACCESS:   18888960  HIT:   18883983  MISS:       4977
BTB BRANCH_DIRECT_CALL	ACCESS:    5685287  HIT:    5682436  MISS:       2851
BTB BRANCH_INDIRECT_CALL	ACCESS:       1049  HIT:        891  MISS:        158
BTB BRANCH_RETURN	ACCESS:    5686344  HIT:    3415473  MISS:    2270871
BTB BRANCH_OTHER ACCESS:          0  HIT:          0  MISS:          0

L2C TOTAL     ACCESS:    2890251  HIT:    2650808  MISS:     239443  HIT %:    91.7155  MISS %:    8.28451   MPKI: 1.19721
L2C LOAD      ACCESS:     313262  HIT:     293802  MISS:      19460  HIT %:    93.7879  MISS %:    6.21205   MPKI: 0.0973
L2C DATA LOAD MPKI: 0.075635
L2C INSTRUCTION LOAD MPKI: 0.021665
L2C RFO       ACCESS:     189832  HIT:      80972  MISS:     108860  HIT %:    42.6546  MISS %:    57.3454   MPKI: 0.5443
L2C PREFETCH  ACCESS:    2062147  HIT:    1953303  MISS:     108844  HIT %:    94.7218  MISS %:    5.27819   MPKI: 0.54422
L2C DATA PREFETCH MPKI: 0.54422
L2C INSTRUCTION PREFETCH MPKI: 0
L2C WRITEBACK ACCESS:     265650  HIT:     263752  MISS:       1898  HIT %:    99.2855  MISS %:   0.714474   MPKI: 0.00949
L2C LOAD TRANSLATION ACCESS:        849  HIT:        639  MISS:        210  HIT %:     75.265  MISS %:     24.735   MPKI: 0.00105
L2C TRANSLATION FROM L1D PREFETCHER ACCESS:      58511  HIT:      58340  MISS:        171  HIT %:    99.7077  MISS %:   0.292253   MPKI: 0.000855
L2C PREFETCH  REQUESTED:          0  ISSUED:          0  USEFUL:       6144  USELESS:     102575
L2C USEFUL LOAD PREFETCHES:       6144 PREFETCH ISSUED TO LOWER LEVEL:     108996  ACCURACY: 5.6369
L2C TIMELY PREFETCHES:       6144 LATE PREFETCHES: 152 DROPPED PREFETCHES: 0
L2C PREFETCHES SAME FILL-ORIGIN LEVEL: 29558 DIFFERENT FILL-ORIGIN LEVEL: 0
L2C AVERAGE MISS LATENCY: 45.2387 cycles
L2C RQ	ACCESS:     562558	FORWARD:          0	MERGED:          0	TO_CACHE:     562454
L2C WQ	ACCESS:     265650	FORWARD:        104	MERGED:          0	TO_CACHE:     265650
L2C PQ	ACCESS:    2076725	FORWARD:          0	MERGED:        114	TO_CACHE:    2076611

L2C Instructions Evicting Data 4267
L2C Translations Evicting Data 345
L2C Data Evicting Data 224429
L2C Instructions Evicting Instructions 54
L2C Translations Evicting Instructions 9
L2C Data Evicting Instructions 4296
L2C Instructions Evicting Translations 7
L2C Translations Evicting Translations 1
L2C Data Evicting Translations 491
L2C Dense regions hint from L2: 0
PSCL5 TOTAL     ACCESS:      59360  HIT:      59360  MISS:          0  HIT %:        100  MISS %:          0   MPKI: 0
PSCL5 LOAD TRANSLATION ACCESS:        849  HIT:        849  MISS:          0  HIT %:        100  MISS %:          0   MPKI: 0
PSCL5 TRANSLATION FROM L1D PREFETCHER ACCESS:      58511  HIT:      58511  MISS:          0  HIT %:        100  MISS %:          0   MPKI: 0
PSCL5 PREFETCH  REQUESTED:          0  ISSUED:          0  USEFUL:          0  USELESS:          0
PSCL5 USEFUL LOAD PREFETCHES:          0 PREFETCH ISSUED TO LOWER LEVEL:          0  ACCURACY: -nan
PSCL5 TIMELY PREFETCHES:          0 LATE PREFETCHES: 0 DROPPED PREFETCHES: 0
PSCL5 PREFETCHES SAME FILL-ORIGIN LEVEL: 0 DIFFERENT FILL-ORIGIN LEVEL: 0

PSCL4 TOTAL     ACCESS:      59360  HIT:      59360  MISS:          0  HIT %:        100  MISS %:          0   MPKI: 0
PSCL4 LOAD TRANSLATION ACCESS:        849  HIT:        849  MISS:          0  HIT %:        100  MISS %:          0   MPKI: 0
PSCL4 TRANSLATION FROM L1D PREFETCHER ACCESS:      58511  HIT:      58511  MISS:          0  HIT %:        100  MISS %:          0   MPKI: 0
PSCL4 PREFETCH  REQUESTED:          0  ISSUED:          0  USEFUL:          0  USELESS:          0
PSCL4 USEFUL LOAD PREFETCHES:          0 PREFETCH ISSUED TO LOWER LEVEL:          0  ACCURACY: -nan
PSCL4 TIMELY PREFETCHES:          0 LATE PREFETCHES: 0 DROPPED PREFETCHES: 0
PSCL4 PREFETCHES SAME FILL-ORIGIN LEVEL: 0 DIFFERENT FILL-ORIGIN LEVEL: 0

PSCL3 TOTAL     ACCESS:      59360  HIT:      59360  MISS:          0  HIT %:        100  MISS %:          0   MPKI: 0
PSCL3 LOAD TRANSLATION ACCESS:        849  HIT:        849  MISS:          0  HIT %:        100  MISS %:          0   MPKI: 0
PSCL3 TRANSLATION FROM L1D PREFETCHER ACCESS:      58511  HIT:      58511  MISS:          0  HIT %:        100  MISS %:          0   MPKI: 0
PSCL3 PREFETCH  REQUESTED:          0  ISSUED:          0  USEFUL:          0  USELESS:          0
PSCL3 USEFUL LOAD PREFETCHES:          0 PREFETCH ISSUED TO LOWER LEVEL:          0  ACCURACY: -nan
PSCL3 TIMELY PREFETCHES:          0 LATE PREFETCHES: 0 DROPPED PREFETCHES: 0
PSCL3 PREFETCHES SAME FILL-ORIGIN LEVEL: 0 DIFFERENT FILL-ORIGIN LEVEL: 0

PSCL2 TOTAL     ACCESS:      59360  HIT:      59360  MISS:          0  HIT %:        100  MISS %:          0   MPKI: 0
PSCL2 LOAD TRANSLATION ACCESS:        849  HIT:        849  MISS:          0  HIT %:        100  MISS %:          0   MPKI: 0
PSCL2 TRANSLATION FROM L1D PREFETCHER ACCESS:      58511  HIT:      58511  MISS:          0  HIT %:        100  MISS %:          0   MPKI: 0
PSCL2 PREFETCH  REQUESTED:          0  ISSUED:          0  USEFUL:          0  USELESS:          0
PSCL2 USEFUL LOAD PREFETCHES:          0 PREFETCH ISSUED TO LOWER LEVEL:          0  ACCURACY: -nan
PSCL2 TIMELY PREFETCHES:          0 LATE PREFETCHES: 0 DROPPED PREFETCHES: 0
PSCL2 PREFETCHES SAME FILL-ORIGIN LEVEL: 0 DIFFERENT FILL-ORIGIN LEVEL: 0

LLC TOTAL     ACCESS:     363066  HIT:     327796  MISS:      35270  HIT %:    90.2855  MISS %:    9.71449   MPKI: 0.17635
LLC LOAD      ACCESS:      19308  HIT:      14963  MISS:       4345  HIT %:    77.4964  MISS %:    22.5036   MPKI: 0.021725
LLC RFO       ACCESS:     108860  HIT:      93522  MISS:      15338  HIT %:    85.9103  MISS %:    14.0897   MPKI: 0.07669
LLC PREFETCH  ACCESS:     108996  HIT:      94333  MISS:      14663  HIT %:    86.5472  MISS %:    13.4528   MPKI: 0.073315
LLC WRITEBACK ACCESS:     125521  HIT:     124746  MISS:        775  HIT %:    99.3826  MISS %:   0.617427   MPKI: 0.003875
LLC LOAD TRANSLATION ACCESS:        210  HIT:        102  MISS:        108  HIT %:    48.5714  MISS %:    51.4286   MPKI: 0.00054
LLC TRANSLATION FROM L1D PREFETCHER ACCESS:        171  HIT:        130  MISS:         41  HIT %:    76.0234  MISS %:    23.9766   MPKI: 0.000205
LLC PREFETCH  REQUESTED:          0  ISSUED:          0  USEFUL:       1482  USELESS:       2363
LLC USEFUL LOAD PREFETCHES:       1482 PREFETCH ISSUED TO LOWER LEVEL:      14663  ACCURACY: 10.1071
LLC TIMELY PREFETCHES:       1482 LATE PREFETCHES: 0 DROPPED PREFETCHES: 0
LLC PREFETCHES SAME FILL-ORIGIN LEVEL: 0 DIFFERENT FILL-ORIGIN LEVEL: 0
LLC AVERAGE MISS LATENCY: 104.968 cycles
LLC RQ	ACCESS:     128549	FORWARD:          0	MERGED:          0	TO_CACHE:     128549
LLC WQ	ACCESS:     125521	FORWARD:          0	MERGED:          0	TO_CACHE:     125521
LLC PQ	ACCESS:     108996	FORWARD:          0	MERGED:          0	TO_CACHE:     108996

LLC Dense regions hint to LLC: 0

RAW hits: 1807874
Loads Generated: 53331613
Loads sent to L1D: 51523738
Stores Generated: 24739858
Stores sent to L1D: 24739865
Major fault: 0 Minor fault: 1321
Allocated PAGES: 1321

DRAM Statistics
 CHANNEL 0
 RQ ROW_BUFFER_HIT:      22548  ROW_BUFFER_MISS:      11947
 DBUS_CONGESTED:          7
 WQ ROW_BUFFER_HIT:        774  ROW_BUFFER_MISS:       2995  FULL:          0

 AVG_CONGESTED_CYCLE: 3
 All warmup complete: 2
Channel 0 Bank busy for read cycles: 0
Channel 0 Bank busy for write cycles: 0
Channel 0
Rank 0
0banks busy for read cycles: 554999975
0banks busy for write cycles: 2444
1banks busy for read cycles: 1937568
1banks busy for write cycles: 407240
2banks busy for read cycles: 240551
2banks busy for write cycles: 62779
3banks busy for read cycles: 49910
3banks busy for write cycles: 27383
4banks busy for read cycles: 21851
4banks busy for write cycles: 14928
5banks busy for read cycles: 13129
5banks busy for write cycles: 8057
6banks busy for read cycles: 8557
6banks busy for write cycles: 5759
7banks busy for read cycles: 6377
7banks busy for write cycles: 2601
8banks busy for read cycles: 12793
8banks busy for write cycles: 3124

CPU 0 Branch Prediction Accuracy: 88.8596% MPKI: 11.9321 Average ROB Occupancy at Mispredict: 20.6819
Branch types
NOT_BRANCH: 165959196 82.9796%
BRANCH_DIRECT_JUMP: 1239661 0.61983%
BRANCH_INDIRECT: 6867 0.0034335%
BRANCH_CONDITIONAL: 21421235 10.7106%
BRANCH_DIRECT_CALL: 5685287 2.84264%
BRANCH_INDIRECT_CALL: 1049 0.0005245%
BRANCH_RETURN: 5686344 2.84317%
BRANCH_OTHER: 0 0%

DRAM PAGES: 1048576
Allocated PAGES: 1321
