
*** ChampSim Multicore Out-of-Order Simulator ***

Warmup Instructions: 50000000
Simulation Instructions: 200000000
Number of CPUs: 1
LLC sets: 2048
LLC ways: 16
Off-chip DRAM Size: 4096 MB Channels: 1 Width: 64-bit Data Rate: 6400 MT/s
argv[0]: ./ChampSim/Berti/bin/multiperspective_perceptron8kb-no-vberti-no-no-no-no-no-lru-lru-lru-srrip-drrip-lru-lru-lru-1core-no
argv[1]: -warmup_instructions
argv[2]: 50000000
argv[3]: -simulation_instructions
argv[4]: 200000000
argv[5]: -traces
argv[6]: traces/spec2k17_ten/641.leela_s-862B.champsimtrace.xz
CPU 0 runs traces/spec2k17_ten/641.leela_s-862B.champsimtrace.xz
.xz
CPU 0 Multiperspective perceptron branch predictor
BTB has LRU replacement policy
ITLB has LRU replacement policy
DTLB has LRU replacement policy
STLB has LRU replacement policy
L1I has LRU replacement policy
History Sets: 8
History Ways: 16
BERTI Size: 16
BERTI Stride Size: 16
L1D has LRU replacement policy
Initialize SRRIP state for L2C
Initialize DRRIP state for LLC
Heartbeat CPU 0 instructions: 10000001 cycles: 3167476 heartbeat IPC: 3.15709 cumulative IPC: 3.15709 (Simulation time: 0 hr 10 min 45 sec) 
Heartbeat CPU 0 instructions: 20000003 cycles: 6338047 heartbeat IPC: 3.15401 cumulative IPC: 3.15555 (Simulation time: 0 hr 16 min 49 sec) 
Heartbeat CPU 0 instructions: 30000000 cycles: 9508260 heartbeat IPC: 3.15436 cumulative IPC: 3.15515 (Simulation time: 0 hr 23 min 25 sec) 
Heartbeat CPU 0 instructions: 40000003 cycles: 12675846 heartbeat IPC: 3.15698 cumulative IPC: 3.15561 (Simulation time: 0 hr 29 min 24 sec) 
Heartbeat CPU 0 instructions: 50000002 cycles: 15840674 heartbeat IPC: 3.15973 cumulative IPC: 3.15643 (Simulation time: 0 hr 35 min 54 sec) 

Warmup complete CPU 0 instructions: 50000002 cycles: 15840674 (Simulation time: 0 hr 35 min 54 sec) 

Heartbeat CPU 0 instructions: 60000002 cycles: 43852669 heartbeat IPC: 0.35699 cumulative IPC: 0.35699 (Simulation time: 0 hr 43 min 22 sec) 
Heartbeat CPU 0 instructions: 70000001 cycles: 71902533 heartbeat IPC: 0.356508 cumulative IPC: 0.356749 (Simulation time: 0 hr 51 min 12 sec) 
Heartbeat CPU 0 instructions: 80000001 cycles: 99561724 heartbeat IPC: 0.361543 cumulative IPC: 0.358333 (Simulation time: 1 hr 0 min 5 sec) 
Heartbeat CPU 0 instructions: 90000000 cycles: 127382630 heartbeat IPC: 0.359442 cumulative IPC: 0.358609 (Simulation time: 1 hr 8 min 38 sec) 
Heartbeat CPU 0 instructions: 100000002 cycles: 155123098 heartbeat IPC: 0.360484 cumulative IPC: 0.358983 (Simulation time: 1 hr 16 min 0 sec) 
Heartbeat CPU 0 instructions: 110000000 cycles: 182699283 heartbeat IPC: 0.362632 cumulative IPC: 0.359586 (Simulation time: 1 hr 21 min 55 sec) 
Heartbeat CPU 0 instructions: 120000001 cycles: 210247663 heartbeat IPC: 0.362998 cumulative IPC: 0.360069 (Simulation time: 1 hr 28 min 55 sec) 
Heartbeat CPU 0 instructions: 130000003 cycles: 238014279 heartbeat IPC: 0.360145 cumulative IPC: 0.360079 (Simulation time: 1 hr 35 min 50 sec) 
Heartbeat CPU 0 instructions: 140000000 cycles: 265688558 heartbeat IPC: 0.361346 cumulative IPC: 0.360219 (Simulation time: 1 hr 41 min 35 sec) 
Heartbeat CPU 0 instructions: 150000000 cycles: 293447527 heartbeat IPC: 0.360244 cumulative IPC: 0.360222 (Simulation time: 1 hr 47 min 9 sec) 
Heartbeat CPU 0 instructions: 160000000 cycles: 321390823 heartbeat IPC: 0.357868 cumulative IPC: 0.360006 (Simulation time: 1 hr 55 min 14 sec) 
Heartbeat CPU 0 instructions: 170000002 cycles: 348973781 heartbeat IPC: 0.362543 cumulative IPC: 0.360216 (Simulation time: 2 hr 1 min 44 sec) 
Heartbeat CPU 0 instructions: 180000002 cycles: 376709176 heartbeat IPC: 0.36055 cumulative IPC: 0.360242 (Simulation time: 2 hr 7 min 34 sec) 
Heartbeat CPU 0 instructions: 190000002 cycles: 404689533 heartbeat IPC: 0.357394 cumulative IPC: 0.360037 (Simulation time: 2 hr 13 min 26 sec) 
Heartbeat CPU 0 instructions: 200000000 cycles: 432304696 heartbeat IPC: 0.36212 cumulative IPC: 0.360175 (Simulation time: 2 hr 22 min 23 sec) 
Heartbeat CPU 0 instructions: 210000002 cycles: 460050697 heartbeat IPC: 0.360412 cumulative IPC: 0.36019 (Simulation time: 2 hr 30 min 38 sec) 
Heartbeat CPU 0 instructions: 220000000 cycles: 487852398 heartbeat IPC: 0.35969 cumulative IPC: 0.360161 (Simulation time: 2 hr 37 min 44 sec) 
Heartbeat CPU 0 instructions: 230000001 cycles: 515610899 heartbeat IPC: 0.36025 cumulative IPC: 0.360166 (Simulation time: 2 hr 43 min 58 sec) 
Heartbeat CPU 0 instructions: 240000001 cycles: 543325224 heartbeat IPC: 0.360824 cumulative IPC: 0.3602 (Simulation time: 2 hr 50 min 46 sec) 
Heartbeat CPU 0 instructions: 250000000 cycles: 571302817 heartbeat IPC: 0.357429 cumulative IPC: 0.360061 (Simulation time: 2 hr 59 min 26 sec) 
Finished CPU 0 instructions: 200000000 cycles: 555462158 cumulative IPC: 0.360061 (Simulation time: 2 hr 59 min 26 sec) 

ChampSim completed all CPUs

Region of Interest Statistics

CPU 0 cumulative IPC: 0.360061 instructions: 200000000 cycles: 555462158
ITLB TOTAL     ACCESS:   34853439  HIT:   34853439  MISS:          0  HIT %:        100  MISS %:          0   MPKI: 0
ITLB LOAD TRANSLATION ACCESS:   34853439  HIT:   34853439  MISS:          0  HIT %:        100  MISS %:          0   MPKI: 0
ITLB PREFETCH  REQUESTED:          0  ISSUED:          0  USEFUL:          0  USELESS:          0
ITLB USEFUL LOAD PREFETCHES:          0 PREFETCH ISSUED TO LOWER LEVEL:          0  ACCURACY: -nan
ITLB TIMELY PREFETCHES:          0 LATE PREFETCHES: 0 DROPPED PREFETCHES: 0
ITLB PREFETCHES SAME FILL-ORIGIN LEVEL: 0 DIFFERENT FILL-ORIGIN LEVEL: 0
ITLB AVERAGE MISS LATENCY: -nan cycles
ITLB RQ	ACCESS:   39828636	FORWARD:          0	MERGED:    4975198	TO_CACHE:   34853438

DTLB TOTAL     ACCESS:   56702310  HIT:   56615127  MISS:      87183  HIT %:    99.8462  MISS %:   0.153756   MPKI: 0.435915
DTLB LOAD TRANSLATION ACCESS:   56702310  HIT:   56615127  MISS:      87183  HIT %:    99.8462  MISS %:   0.153756   MPKI: 0.435915
DTLB PREFETCH  REQUESTED:          0  ISSUED:          0  USEFUL:          0  USELESS:          0
DTLB USEFUL LOAD PREFETCHES:          0 PREFETCH ISSUED TO LOWER LEVEL:          0  ACCURACY: -nan
DTLB TIMELY PREFETCHES:          0 LATE PREFETCHES: 0 DROPPED PREFETCHES: 0
DTLB PREFETCHES SAME FILL-ORIGIN LEVEL: 0 DIFFERENT FILL-ORIGIN LEVEL: 0
DTLB AVERAGE MISS LATENCY: 9.25917 cycles
DTLB RQ	ACCESS:   64934356	FORWARD:          0	MERGED:    8231204	TO_CACHE:   56703152

STLB TOTAL     ACCESS:     759648  HIT:     759477  MISS:        171  HIT %:    99.9775  MISS %:  0.0225104   MPKI: 0.000855
STLB LOAD TRANSLATION ACCESS:      87183  HIT:      87012  MISS:        171  HIT %:    99.8039  MISS %:   0.196139   MPKI: 0.000855
STLB TRANSLATION FROM L1D PREFETCHER ACCESS:     672465  HIT:     672465  MISS:          0  HIT %:        100  MISS %:          0   MPKI: 0
STLB PREFETCH  REQUESTED:          0  ISSUED:          0  USEFUL:          0  USELESS:          0
STLB USEFUL LOAD PREFETCHES:          0 PREFETCH ISSUED TO LOWER LEVEL:          0  ACCURACY: -nan
STLB TIMELY PREFETCHES:          0 LATE PREFETCHES: 0 DROPPED PREFETCHES: 14186
STLB PREFETCHES SAME FILL-ORIGIN LEVEL: 0 DIFFERENT FILL-ORIGIN LEVEL: 0
STLB AVERAGE MISS LATENCY: 166.175 cycles
STLB RQ	ACCESS:    3584378	FORWARD:          0	MERGED:    2807204	TO_CACHE:     777174

STLB Hit, L1D data hit: 0
STLB Hit, L2C data hit: 0
STLB Hit, LLC data hit: 0
STLB Hit, LLC data miss: 0
STLB STLB hints to L2: 0
L1D TOTAL     ACCESS:   67564823  HIT:   67153385  MISS:     411438  HIT %:     99.391  MISS %:   0.608953   MPKI: 2.05719
L1D LOAD      ACCESS:   41608885  HIT:   41361935  MISS:     246950  HIT %:    99.4065  MISS %:   0.593503   MPKI: 1.23475
L1D RFO       ACCESS:   23267834  HIT:   23226797  MISS:      41037  HIT %:    99.8236  MISS %:   0.176368   MPKI: 0.205185
L1D PREFETCH  ACCESS:    2688104  HIT:    2564653  MISS:     123451  HIT %:    95.4075  MISS %:    4.59249   MPKI: 0.617255
L1D PREFETCH  REQUESTED:    7184684  ISSUED:    7184502  USEFUL:      99030  USELESS:      24442
L1D USEFUL LOAD PREFETCHES:      99030 PREFETCH ISSUED TO LOWER LEVEL:     889048  ACCURACY: 11.1389
L1D TIMELY PREFETCHES:      99030 LATE PREFETCHES: 5473 DROPPED PREFETCHES: 33986
L1D PREFETCHES SAME FILL-ORIGIN LEVEL: 128924 DIFFERENT FILL-ORIGIN LEVEL: 760124
L1D AVERAGE MISS LATENCY: 15.9281 cycles
L1D RQ	ACCESS:   52723113	FORWARD:          0	MERGED:    9007330	TO_CACHE:   41612184
L1D WQ	ACCESS:   23647431	FORWARD:    2103602	MERGED:     325259	TO_CACHE:   23322172
L1D PQ	ACCESS:    3687307	FORWARD:          0	MERGED:     190109	TO_CACHE:    3497195

L1D UNIQUE REGIONS ACCESSED: 0
L1D REGIONS CONFLICTS: 0
L1D Cross Page Prefetch Requests: 457101
L1D Same Page Prefetch Requests: 4117604
L1D ROI Sum of L1D PQ occupancy: 51078189
L1D PREFETCHES PUSHED FROM L2C: 0
L1I TOTAL     ACCESS:   39823494  HIT:   39811438  MISS:      12056  HIT %:    99.9697  MISS %:  0.0302736   MPKI: 0.06028
L1I LOAD      ACCESS:   39823494  HIT:   39811438  MISS:      12056  HIT %:    99.9697  MISS %:  0.0302736   MPKI: 0.06028
L1I PREFETCH  REQUESTED:          0  ISSUED:          0  USEFUL:          0  USELESS:          0
L1I USEFUL LOAD PREFETCHES:          0 PREFETCH ISSUED TO LOWER LEVEL:          0  ACCURACY: -nan
L1I TIMELY PREFETCHES:          0 LATE PREFETCHES: 0 DROPPED PREFETCHES: 0
L1I PREFETCHES SAME FILL-ORIGIN LEVEL: 0 DIFFERENT FILL-ORIGIN LEVEL: 0
L1I AVERAGE MISS LATENCY: 14.1752 cycles
L1I RQ	ACCESS:   56710364	FORWARD:          0	MERGED:   16881728	TO_CACHE:   39828636

BTB TOTAL     ACCESS:   31358783  HIT:   29062223  MISS:    2296560  HIT %:    92.6765  MISS %:     7.3235   MPKI: 11.4828
BTB BRANCH_DIRECT_JUMP	ACCESS:    1066547  HIT:    1066464  MISS:         83
BTB BRANCH_INDIRECT	ACCESS:       1307  HIT:       1194  MISS:        113
BTB BRANCH_CONDITIONAL	ACCESS:   18451410  HIT:   18450222  MISS:       1188
BTB BRANCH_DIRECT_CALL	ACCESS:    5919759  HIT:    5919257  MISS:        502
BTB BRANCH_INDIRECT_CALL	ACCESS:          0  HIT:          0  MISS:          0
BTB BRANCH_RETURN	ACCESS:    5919760  HIT:    3625086  MISS:    2294674
BTB BRANCH_OTHER ACCESS:          0  HIT:          0  MISS:          0

L2C TOTAL     ACCESS:    1271191  HIT:    1265094  MISS:       6097  HIT %:    99.5204  MISS %:   0.479629   MPKI: 0.030485
L2C LOAD      ACCESS:     253531  HIT:     250433  MISS:       3098  HIT %:    98.7781  MISS %:    1.22194   MPKI: 0.01549
L2C DATA LOAD MPKI: 0.015395
L2C INSTRUCTION LOAD MPKI: 9.5e-05
L2C RFO       ACCESS:      41037  HIT:      39611  MISS:       1426  HIT %:    96.5251  MISS %:    3.47491   MPKI: 0.00713
L2C PREFETCH  ACCESS:     888669  HIT:     887239  MISS:       1430  HIT %:    99.8391  MISS %:   0.160915   MPKI: 0.00715
L2C DATA PREFETCH MPKI: 0.00715
L2C INSTRUCTION PREFETCH MPKI: 0
L2C WRITEBACK ACCESS:      73597  HIT:      73535  MISS:         62  HIT %:    99.9158  MISS %:  0.0842426   MPKI: 0.00031
L2C LOAD TRANSLATION ACCESS:        171  HIT:        110  MISS:         61  HIT %:    64.3275  MISS %:    35.6725   MPKI: 0.000305
L2C TRANSLATION FROM L1D PREFETCHER ACCESS:      14186  HIT:      14166  MISS:         20  HIT %:     99.859  MISS %:   0.140984   MPKI: 0.0001
L2C PREFETCH  REQUESTED:          0  ISSUED:          0  USEFUL:        576  USELESS:        841
L2C USEFUL LOAD PREFETCHES:        576 PREFETCH ISSUED TO LOWER LEVEL:       1434  ACCURACY: 40.1674
L2C TIMELY PREFETCHES:        576 LATE PREFETCHES: 4 DROPPED PREFETCHES: 0
L2C PREFETCHES SAME FILL-ORIGIN LEVEL: 827 DIFFERENT FILL-ORIGIN LEVEL: 0
L2C AVERAGE MISS LATENCY: 88.2352 cycles
L2C RQ	ACCESS:     308927	FORWARD:          0	MERGED:          0	TO_CACHE:     308925
L2C WQ	ACCESS:      73597	FORWARD:          5	MERGED:          0	TO_CACHE:      73597
L2C PQ	ACCESS:     889048	FORWARD:          0	MERGED:         49	TO_CACHE:     888996

L2C Instructions Evicting Data 11
L2C Translations Evicting Data 36
L2C Data Evicting Data 4216
L2C Instructions Evicting Instructions 0
L2C Translations Evicting Instructions 2
L2C Data Evicting Instructions 134
L2C Instructions Evicting Translations 0
L2C Translations Evicting Translations 1
L2C Data Evicting Translations 94
L2C Dense regions hint from L2: 0
PSCL5 TOTAL     ACCESS:      14357  HIT:      14357  MISS:          0  HIT %:        100  MISS %:          0   MPKI: 0
PSCL5 LOAD TRANSLATION ACCESS:        171  HIT:        171  MISS:          0  HIT %:        100  MISS %:          0   MPKI: 0
PSCL5 TRANSLATION FROM L1D PREFETCHER ACCESS:      14186  HIT:      14186  MISS:          0  HIT %:        100  MISS %:          0   MPKI: 0
PSCL5 PREFETCH  REQUESTED:          0  ISSUED:          0  USEFUL:          0  USELESS:          0
PSCL5 USEFUL LOAD PREFETCHES:          0 PREFETCH ISSUED TO LOWER LEVEL:          0  ACCURACY: -nan
PSCL5 TIMELY PREFETCHES:          0 LATE PREFETCHES: 0 DROPPED PREFETCHES: 0
PSCL5 PREFETCHES SAME FILL-ORIGIN LEVEL: 0 DIFFERENT FILL-ORIGIN LEVEL: 0

PSCL4 TOTAL     ACCESS:      14357  HIT:      14357  MISS:          0  HIT %:        100  MISS %:          0   MPKI: 0
PSCL4 LOAD TRANSLATION ACCESS:        171  HIT:        171  MISS:          0  HIT %:        100  MISS %:          0   MPKI: 0
PSCL4 TRANSLATION FROM L1D PREFETCHER ACCESS:      14186  HIT:      14186  MISS:          0  HIT %:        100  MISS %:          0   MPKI: 0
PSCL4 PREFETCH  REQUESTED:          0  ISSUED:          0  USEFUL:          0  USELESS:          0
PSCL4 USEFUL LOAD PREFETCHES:          0 PREFETCH ISSUED TO LOWER LEVEL:          0  ACCURACY: -nan
PSCL4 TIMELY PREFETCHES:          0 LATE PREFETCHES: 0 DROPPED PREFETCHES: 0
PSCL4 PREFETCHES SAME FILL-ORIGIN LEVEL: 0 DIFFERENT FILL-ORIGIN LEVEL: 0

PSCL3 TOTAL     ACCESS:      14357  HIT:      14357  MISS:          0  HIT %:        100  MISS %:          0   MPKI: 0
PSCL3 LOAD TRANSLATION ACCESS:        171  HIT:        171  MISS:          0  HIT %:        100  MISS %:          0   MPKI: 0
PSCL3 TRANSLATION FROM L1D PREFETCHER ACCESS:      14186  HIT:      14186  MISS:          0  HIT %:        100  MISS %:          0   MPKI: 0
PSCL3 PREFETCH  REQUESTED:          0  ISSUED:          0  USEFUL:          0  USELESS:          0
PSCL3 USEFUL LOAD PREFETCHES:          0 PREFETCH ISSUED TO LOWER LEVEL:          0  ACCURACY: -nan
PSCL3 TIMELY PREFETCHES:          0 LATE PREFETCHES: 0 DROPPED PREFETCHES: 0
PSCL3 PREFETCHES SAME FILL-ORIGIN LEVEL: 0 DIFFERENT FILL-ORIGIN LEVEL: 0

PSCL2 TOTAL     ACCESS:      14357  HIT:      14357  MISS:          0  HIT %:        100  MISS %:          0   MPKI: 0
PSCL2 LOAD TRANSLATION ACCESS:        171  HIT:        171  MISS:          0  HIT %:        100  MISS %:          0   MPKI: 0
PSCL2 TRANSLATION FROM L1D PREFETCHER ACCESS:      14186  HIT:      14186  MISS:          0  HIT %:        100  MISS %:          0   MPKI: 0
PSCL2 PREFETCH  REQUESTED:          0  ISSUED:          0  USEFUL:          0  USELESS:          0
PSCL2 USEFUL LOAD PREFETCHES:          0 PREFETCH ISSUED TO LOWER LEVEL:          0  ACCURACY: -nan
PSCL2 TIMELY PREFETCHES:          0 LATE PREFETCHES: 0 DROPPED PREFETCHES: 0
PSCL2 PREFETCHES SAME FILL-ORIGIN LEVEL: 0 DIFFERENT FILL-ORIGIN LEVEL: 0

LLC TOTAL     ACCESS:       6737  HIT:       3733  MISS:       3004  HIT %:    55.4104  MISS %:    44.5896   MPKI: 0.01502
LLC LOAD      ACCESS:       3094  HIT:       2201  MISS:        893  HIT %:    71.1377  MISS %:    28.8623   MPKI: 0.004465
LLC RFO       ACCESS:       1426  HIT:         23  MISS:       1403  HIT %:     1.6129  MISS %:    98.3871   MPKI: 0.007015
LLC PREFETCH  ACCESS:       1434  HIT:        792  MISS:        642  HIT %:    55.2301  MISS %:    44.7699   MPKI: 0.00321
LLC WRITEBACK ACCESS:        702  HIT:        687  MISS:         15  HIT %:    97.8632  MISS %:    2.13675   MPKI: 7.5e-05
LLC LOAD TRANSLATION ACCESS:         61  HIT:         17  MISS:         44  HIT %:    27.8689  MISS %:    72.1311   MPKI: 0.00022
LLC TRANSLATION FROM L1D PREFETCHER ACCESS:         20  HIT:         13  MISS:          7  HIT %:         65  MISS %:         35   MPKI: 3.5e-05
LLC PREFETCH  REQUESTED:          0  ISSUED:          0  USEFUL:         20  USELESS:         20
LLC USEFUL LOAD PREFETCHES:         20 PREFETCH ISSUED TO LOWER LEVEL:        642  ACCURACY: 3.11526
LLC TIMELY PREFETCHES:         20 LATE PREFETCHES: 0 DROPPED PREFETCHES: 0
LLC PREFETCHES SAME FILL-ORIGIN LEVEL: 0 DIFFERENT FILL-ORIGIN LEVEL: 0
LLC AVERAGE MISS LATENCY: 118.673 cycles
LLC RQ	ACCESS:       4601	FORWARD:          0	MERGED:          0	TO_CACHE:       4601
LLC WQ	ACCESS:        702	FORWARD:          0	MERGED:          0	TO_CACHE:        702
LLC PQ	ACCESS:       1434	FORWARD:          0	MERGED:          0	TO_CACHE:       1434

LLC Dense regions hint to LLC: 0

RAW hits: 1820478
Loads Generated: 54543592
Loads sent to L1D: 52723113
Stores Generated: 23647433
Stores sent to L1D: 23647431
Major fault: 0 Minor fault: 592
Allocated PAGES: 592

DRAM Statistics
 CHANNEL 0
 RQ ROW_BUFFER_HIT:       1573  ROW_BUFFER_MISS:       1416
 DBUS_CONGESTED:          0
 WQ ROW_BUFFER_HIT:          0  ROW_BUFFER_MISS:          0  FULL:          0

 AVG_CONGESTED_CYCLE: -
 All warmup complete: 2
Channel 0 Bank busy for read cycles: 0
Channel 0 Bank busy for write cycles: 0
Channel 0
Rank 0
0banks busy for read cycles: 555218327
0banks busy for write cycles: 0
1banks busy for read cycles: 224016
1banks busy for write cycles: 0
2banks busy for read cycles: 8777
2banks busy for write cycles: 0
3banks busy for read cycles: 4065
3banks busy for write cycles: 0
4banks busy for read cycles: 2855
4banks busy for write cycles: 0
5banks busy for read cycles: 1450
5banks busy for write cycles: 0
6banks busy for read cycles: 1010
6banks busy for write cycles: 0
7banks busy for read cycles: 715
7banks busy for write cycles: 0
8banks busy for read cycles: 944
8banks busy for write cycles: 0

CPU 0 Branch Prediction Accuracy: 87.2411% MPKI: 12.7648 Average ROB Occupancy at Mispredict: 21.0434
Branch types
NOT_BRANCH: 167083029 83.5415%
BRANCH_DIRECT_JUMP: 1066547 0.533273%
BRANCH_INDIRECT: 1307 0.0006535%
BRANCH_CONDITIONAL: 20009273 10.0046%
BRANCH_DIRECT_CALL: 5919759 2.95988%
BRANCH_INDIRECT_CALL: 0 0%
BRANCH_RETURN: 5919760 2.95988%
BRANCH_OTHER: 0 0%

DRAM PAGES: 1048576
Allocated PAGES: 592
