 (TOTAL 67349)
 
*** ChampSim Multicore Out-of-Order Simulator ***

Warmup Instructions: 50000000
Simulation Instructions: 200000000
Number of CPUs: 1
LLC sets: 2048
LLC ways: 16
Off-chip DRAM Size: 4096 MB Channels: 1 Width: 64-bit Data Rate: 6400 MT/s
argv[0]: ./ChampSim/Berti/bin/tagescl8kb-no-vberti-no-no-no-no-no-lru-lru-lru-srrip-drrip-lru-lru-lru-1core-no
argv[1]: -warmup_instructions
argv[2]: 50000000
argv[3]: -simulation_instructions
argv[4]: 200000000
argv[5]: -traces
argv[6]: traces/spec2k17_ten/644.nab_s-5853B.champsimtrace.xz
CPU 0 runs traces/spec2k17_ten/644.nab_s-5853B.champsimtrace.xz
.xz
CPU 0 Tage branch predictor
BTB has LRU replacement policy
ITLB has LRU replacement policy
DTLB has LRU replacement policy
STLB has LRU replacement policy
L1I has LRU replacement policy
History Sets: 8
History Ways: 16
BERTI Size: 16
BERTI Stride Size: 16
L1D has LRU replacement policy
Initialize SRRIP state for L2C
Initialize DRRIP state for LLC
Heartbeat CPU 0 instructions: 10000002 cycles: 3238330 heartbeat IPC: 3.08801 cumulative IPC: 3.08801 (Simulation time: 0 hr 4 min 3 sec) 
Heartbeat CPU 0 instructions: 20000001 cycles: 6476530 heartbeat IPC: 3.08814 cumulative IPC: 3.08807 (Simulation time: 0 hr 10 min 8 sec) 
Heartbeat CPU 0 instructions: 30000000 cycles: 9710828 heartbeat IPC: 3.09186 cumulative IPC: 3.08933 (Simulation time: 0 hr 16 min 42 sec) 
Heartbeat CPU 0 instructions: 40000001 cycles: 12924418 heartbeat IPC: 3.11178 cumulative IPC: 3.09492 (Simulation time: 0 hr 24 min 15 sec) 
Heartbeat CPU 0 instructions: 50000001 cycles: 16141314 heartbeat IPC: 3.10859 cumulative IPC: 3.09764 (Simulation time: 0 hr 29 min 56 sec) 

Warmup complete CPU 0 instructions: 50000001 cycles: 16141314 (Simulation time: 0 hr 29 min 56 sec) 

Heartbeat CPU 0 instructions: 60000000 cycles: 30832145 heartbeat IPC: 0.680697 cumulative IPC: 0.680697 (Simulation time: 0 hr 36 min 45 sec) 
Heartbeat CPU 0 instructions: 70000000 cycles: 45484042 heartbeat IPC: 0.682505 cumulative IPC: 0.6816 (Simulation time: 0 hr 43 min 34 sec) 
Heartbeat CPU 0 instructions: 80000003 cycles: 60136746 heartbeat IPC: 0.682468 cumulative IPC: 0.681889 (Simulation time: 0 hr 49 min 35 sec) 
Heartbeat CPU 0 instructions: 90000000 cycles: 74807516 heartbeat IPC: 0.681627 cumulative IPC: 0.681824 (Simulation time: 0 hr 57 min 20 sec) 
Heartbeat CPU 0 instructions: 100000001 cycles: 89454949 heartbeat IPC: 0.682714 cumulative IPC: 0.682001 (Simulation time: 1 hr 3 min 37 sec) 
Heartbeat CPU 0 instructions: 110000000 cycles: 104102800 heartbeat IPC: 0.682694 cumulative IPC: 0.682117 (Simulation time: 1 hr 7 min 55 sec) 
Heartbeat CPU 0 instructions: 120000001 cycles: 118752657 heartbeat IPC: 0.682601 cumulative IPC: 0.682186 (Simulation time: 1 hr 11 min 41 sec) 
Heartbeat CPU 0 instructions: 130000003 cycles: 133386060 heartbeat IPC: 0.683368 cumulative IPC: 0.682333 (Simulation time: 1 hr 16 min 32 sec) 
Heartbeat CPU 0 instructions: 140000001 cycles: 148016193 heartbeat IPC: 0.683521 cumulative IPC: 0.682465 (Simulation time: 1 hr 20 min 15 sec) 
Heartbeat CPU 0 instructions: 150000002 cycles: 162651187 heartbeat IPC: 0.683294 cumulative IPC: 0.682548 (Simulation time: 1 hr 24 min 11 sec) 
Heartbeat CPU 0 instructions: 160000000 cycles: 177294802 heartbeat IPC: 0.682891 cumulative IPC: 0.682579 (Simulation time: 1 hr 27 min 46 sec) 
Heartbeat CPU 0 instructions: 170000003 cycles: 191947528 heartbeat IPC: 0.682467 cumulative IPC: 0.68257 (Simulation time: 1 hr 30 min 27 sec) 
Heartbeat CPU 0 instructions: 180000002 cycles: 206585294 heartbeat IPC: 0.683164 cumulative IPC: 0.682615 (Simulation time: 1 hr 32 min 51 sec) 
Heartbeat CPU 0 instructions: 190000000 cycles: 221227986 heartbeat IPC: 0.682934 cumulative IPC: 0.682638 (Simulation time: 1 hr 34 min 38 sec) 
Heartbeat CPU 0 instructions: 200000002 cycles: 235866068 heartbeat IPC: 0.68315 cumulative IPC: 0.682672 (Simulation time: 1 hr 36 min 28 sec) 
Heartbeat CPU 0 instructions: 210000003 cycles: 250499735 heartbeat IPC: 0.683356 cumulative IPC: 0.682715 (Simulation time: 1 hr 38 min 1 sec) 
Heartbeat CPU 0 instructions: 220000000 cycles: 265141063 heartbeat IPC: 0.682998 cumulative IPC: 0.682732 (Simulation time: 1 hr 39 min 18 sec) 
Heartbeat CPU 0 instructions: 230000000 cycles: 279776922 heartbeat IPC: 0.683253 cumulative IPC: 0.682761 (Simulation time: 1 hr 40 min 26 sec) 
Heartbeat CPU 0 instructions: 240000002 cycles: 294417520 heartbeat IPC: 0.683032 cumulative IPC: 0.682775 (Simulation time: 1 hr 41 min 25 sec) 
Heartbeat CPU 0 instructions: 250000003 cycles: 309071436 heartbeat IPC: 0.682411 cumulative IPC: 0.682757 (Simulation time: 1 hr 42 min 24 sec) 
Finished CPU 0 instructions: 200000002 cycles: 292930122 cumulative IPC: 0.682757 (Simulation time: 1 hr 42 min 24 sec) 

ChampSim completed all CPUs

Region of Interest Statistics

CPU 0 cumulative IPC: 0.682757 instructions: 200000002 cycles: 292930122
ITLB TOTAL     ACCESS:   28741439  HIT:   28741439  MISS:          0  HIT %:        100  MISS %:          0   MPKI: 0
ITLB LOAD TRANSLATION ACCESS:   28741439  HIT:   28741439  MISS:          0  HIT %:        100  MISS %:          0   MPKI: 0
ITLB PREFETCH  REQUESTED:          0  ISSUED:          0  USEFUL:          0  USELESS:          0
ITLB USEFUL LOAD PREFETCHES:          0 PREFETCH ISSUED TO LOWER LEVEL:          0  ACCURACY: -nan
ITLB TIMELY PREFETCHES:          0 LATE PREFETCHES: 0 DROPPED PREFETCHES: 0
ITLB PREFETCHES SAME FILL-ORIGIN LEVEL: 0 DIFFERENT FILL-ORIGIN LEVEL: 0
ITLB AVERAGE MISS LATENCY: -nan cycles
ITLB RQ	ACCESS:   35933863	FORWARD:          0	MERGED:    7192425	TO_CACHE:   28741438

DTLB TOTAL     ACCESS:   49789728  HIT:   49720432  MISS:      69296  HIT %:    99.8608  MISS %:   0.139177   MPKI: 0.34648
DTLB LOAD TRANSLATION ACCESS:   49789728  HIT:   49720432  MISS:      69296  HIT %:    99.8608  MISS %:   0.139177   MPKI: 0.34648
DTLB PREFETCH  REQUESTED:          0  ISSUED:          0  USEFUL:          0  USELESS:          0
DTLB USEFUL LOAD PREFETCHES:          0 PREFETCH ISSUED TO LOWER LEVEL:          0  ACCURACY: -nan
DTLB TIMELY PREFETCHES:          0 LATE PREFETCHES: 0 DROPPED PREFETCHES: 0
DTLB PREFETCHES SAME FILL-ORIGIN LEVEL: 0 DIFFERENT FILL-ORIGIN LEVEL: 0
DTLB AVERAGE MISS LATENCY: 11.9697 cycles
DTLB RQ	ACCESS:   64966787	FORWARD:          0	MERGED:   15176110	TO_CACHE:   49790677

STLB TOTAL     ACCESS:    5418369  HIT:    5416984  MISS:       1385  HIT %:    99.9744  MISS %:  0.0255612   MPKI: 0.006925
STLB LOAD TRANSLATION ACCESS:      69296  HIT:      67911  MISS:       1385  HIT %:    98.0013  MISS %:    1.99867   MPKI: 0.006925
STLB TRANSLATION FROM L1D PREFETCHER ACCESS:    5349073  HIT:    5349073  MISS:          0  HIT %:        100  MISS %:          0   MPKI: 0
STLB PREFETCH  REQUESTED:          0  ISSUED:          0  USEFUL:          0  USELESS:          0
STLB USEFUL LOAD PREFETCHES:          0 PREFETCH ISSUED TO LOWER LEVEL:          0  ACCURACY: -nan
STLB TIMELY PREFETCHES:          0 LATE PREFETCHES: 0 DROPPED PREFETCHES: 189342
STLB PREFETCHES SAME FILL-ORIGIN LEVEL: 0 DIFFERENT FILL-ORIGIN LEVEL: 0
STLB AVERAGE MISS LATENCY: 143.693 cycles
STLB RQ	ACCESS:   25124871	FORWARD:          0	MERGED:   19517153	TO_CACHE:    5607718

STLB Hit, L1D data hit: 0
STLB Hit, L2C data hit: 0
STLB Hit, LLC data hit: 0
STLB Hit, LLC data miss: 0
STLB STLB hints to L2: 0
L1D TOTAL     ACCESS:   79664420  HIT:   78580522  MISS:    1083898  HIT %:    98.6394  MISS %:    1.36058   MPKI: 5.41949
L1D LOAD      ACCESS:   42814837  HIT:   42554183  MISS:     260654  HIT %:    99.3912  MISS %:   0.608794   MPKI: 1.30327
L1D RFO       ACCESS:   22116366  HIT:   22115072  MISS:       1294  HIT %:    99.9941  MISS %: 0.00585087   MPKI: 0.00647
L1D PREFETCH  ACCESS:   14733217  HIT:   13911267  MISS:     821950  HIT %:    94.4211  MISS %:    5.57889   MPKI: 4.10975
L1D PREFETCH  REQUESTED:   55109481  ISSUED:   50362427  USEFUL:     649387  USELESS:     172603
L1D USEFUL LOAD PREFETCHES:     649387 PREFETCH ISSUED TO LOWER LEVEL:   10677929  ACCURACY: 6.08158
L1D TIMELY PREFETCHES:     649387 LATE PREFETCHES: 0 DROPPED PREFETCHES: 455480
L1D PREFETCHES SAME FILL-ORIGIN LEVEL: 821950 DIFFERENT FILL-ORIGIN LEVEL: 9855979
L1D AVERAGE MISS LATENCY: 17.5972 cycles
L1D RQ	ACCESS:   53418429	FORWARD:          0	MERGED:    9830061	TO_CACHE:   42847584
L1D WQ	ACCESS:   22673120	FORWARD:     740784	MERGED:     553917	TO_CACHE:   22119203
L1D PQ	ACCESS:   25306852	FORWARD:          0	MERGED:     251277	TO_CACHE:   25055575

L1D UNIQUE REGIONS ACCESSED: 0
L1D REGIONS CONFLICTS: 0
L1D Cross Page Prefetch Requests: 2637039
L1D Same Page Prefetch Requests: 28522442
L1D ROI Sum of L1D PQ occupancy: 396001645
L1D PREFETCHES PUSHED FROM L2C: 0
L1I TOTAL     ACCESS:   35933862  HIT:   35933862  MISS:          0  HIT %:        100  MISS %:          0   MPKI: 0
L1I LOAD      ACCESS:   35933862  HIT:   35933862  MISS:          0  HIT %:        100  MISS %:          0   MPKI: 0
L1I PREFETCH  REQUESTED:          0  ISSUED:          0  USEFUL:          0  USELESS:          0
L1I USEFUL LOAD PREFETCHES:          0 PREFETCH ISSUED TO LOWER LEVEL:          0  ACCURACY: -nan
L1I TIMELY PREFETCHES:          0 LATE PREFETCHES: 0 DROPPED PREFETCHES: 0
L1I PREFETCHES SAME FILL-ORIGIN LEVEL: 0 DIFFERENT FILL-ORIGIN LEVEL: 0
L1I AVERAGE MISS LATENCY: -nan cycles
L1I RQ	ACCESS:   50859026	FORWARD:          0	MERGED:   14925163	TO_CACHE:   35933863

BTB TOTAL     ACCESS:   14896356  HIT:   13790383  MISS:    1105973  HIT %:    92.5755  MISS %:    7.42445   MPKI: 5.52986
BTB BRANCH_DIRECT_JUMP	ACCESS:    1660136  HIT:    1660105  MISS:         31
BTB BRANCH_INDIRECT	ACCESS:         60  HIT:         59  MISS:          1
BTB BRANCH_CONDITIONAL	ACCESS:    8813407  HIT:    8813314  MISS:         93
BTB BRANCH_DIRECT_CALL	ACCESS:    2211376  HIT:    2211332  MISS:         44
BTB BRANCH_INDIRECT_CALL	ACCESS:          0  HIT:          0  MISS:          0
BTB BRANCH_RETURN	ACCESS:    2211377  HIT:    1105573  MISS:    1105804
BTB BRANCH_OTHER ACCESS:          0  HIT:          0  MISS:          0

L2C TOTAL     ACCESS:   11433902  HIT:   11382679  MISS:      51223  HIT %:     99.552  MISS %:   0.447992   MPKI: 0.256115
L2C LOAD      ACCESS:     260653  HIT:     257531  MISS:       3122  HIT %:    98.8022  MISS %:    1.19776   MPKI: 0.01561
L2C DATA LOAD MPKI: 0.01561
L2C INSTRUCTION LOAD MPKI: 0
L2C RFO       ACCESS:       1294  HIT:       1209  MISS:         85  HIT %:    93.4312  MISS %:    6.56878   MPKI: 0.000425
L2C PREFETCH  ACCESS:   10677878  HIT:   10630345  MISS:      47533  HIT %:    99.5548  MISS %:   0.445154   MPKI: 0.237665
L2C DATA PREFETCH MPKI: 0.237665
L2C INSTRUCTION PREFETCH MPKI: 0
L2C WRITEBACK ACCESS:     297192  HIT:     297182  MISS:         10  HIT %:    99.9966  MISS %: 0.00336483   MPKI: 5e-05
L2C LOAD TRANSLATION ACCESS:       1401  HIT:       1092  MISS:        309  HIT %:    77.9443  MISS %:    22.0557   MPKI: 0.001545
L2C TRANSLATION FROM L1D PREFETCHER ACCESS:     195484  HIT:     195320  MISS:        164  HIT %:    99.9161  MISS %:  0.0838943   MPKI: 0.00082
L2C PREFETCH  REQUESTED:          0  ISSUED:          0  USEFUL:       2549  USELESS:      45876
L2C USEFUL LOAD PREFETCHES:       2549 PREFETCH ISSUED TO LOWER LEVEL:      47533  ACCURACY: 5.36259
L2C TIMELY PREFETCHES:       2549 LATE PREFETCHES: 0 DROPPED PREFETCHES: 0
L2C PREFETCHES SAME FILL-ORIGIN LEVEL: 30180 DIFFERENT FILL-ORIGIN LEVEL: 0
L2C AVERAGE MISS LATENCY: 117.062 cycles
L2C RQ	ACCESS:     458833	FORWARD:          0	MERGED:          0	TO_CACHE:     458832
L2C WQ	ACCESS:     297192	FORWARD:         24	MERGED:          0	TO_CACHE:     297192
L2C PQ	ACCESS:   10677929	FORWARD:          0	MERGED:          1	TO_CACHE:   10677905

L2C Instructions Evicting Data 0
L2C Translations Evicting Data 469
L2C Data Evicting Data 50196
L2C Instructions Evicting Instructions 0
L2C Translations Evicting Instructions 0
L2C Data Evicting Instructions 0
L2C Instructions Evicting Translations 0
L2C Translations Evicting Translations 4
L2C Data Evicting Translations 544
L2C Dense regions hint from L2: 0
PSCL5 TOTAL     ACCESS:     190727  HIT:     190727  MISS:          0  HIT %:        100  MISS %:          0   MPKI: 0
PSCL5 LOAD TRANSLATION ACCESS:       1385  HIT:       1385  MISS:          0  HIT %:        100  MISS %:          0   MPKI: 0
PSCL5 TRANSLATION FROM L1D PREFETCHER ACCESS:     189342  HIT:     189342  MISS:          0  HIT %:        100  MISS %:          0   MPKI: 0
PSCL5 PREFETCH  REQUESTED:          0  ISSUED:          0  USEFUL:          0  USELESS:          0
PSCL5 USEFUL LOAD PREFETCHES:          0 PREFETCH ISSUED TO LOWER LEVEL:          0  ACCURACY: -nan
PSCL5 TIMELY PREFETCHES:          0 LATE PREFETCHES: 0 DROPPED PREFETCHES: 0
PSCL5 PREFETCHES SAME FILL-ORIGIN LEVEL: 0 DIFFERENT FILL-ORIGIN LEVEL: 0

PSCL4 TOTAL     ACCESS:     190727  HIT:     190727  MISS:          0  HIT %:        100  MISS %:          0   MPKI: 0
PSCL4 LOAD TRANSLATION ACCESS:       1385  HIT:       1385  MISS:          0  HIT %:        100  MISS %:          0   MPKI: 0
PSCL4 TRANSLATION FROM L1D PREFETCHER ACCESS:     189342  HIT:     189342  MISS:          0  HIT %:        100  MISS %:          0   MPKI: 0
PSCL4 PREFETCH  REQUESTED:          0  ISSUED:          0  USEFUL:          0  USELESS:          0
PSCL4 USEFUL LOAD PREFETCHES:          0 PREFETCH ISSUED TO LOWER LEVEL:          0  ACCURACY: -nan
PSCL4 TIMELY PREFETCHES:          0 LATE PREFETCHES: 0 DROPPED PREFETCHES: 0
PSCL4 PREFETCHES SAME FILL-ORIGIN LEVEL: 0 DIFFERENT FILL-ORIGIN LEVEL: 0

PSCL3 TOTAL     ACCESS:     190727  HIT:     190727  MISS:          0  HIT %:        100  MISS %:          0   MPKI: 0
PSCL3 LOAD TRANSLATION ACCESS:       1385  HIT:       1385  MISS:          0  HIT %:        100  MISS %:          0   MPKI: 0
PSCL3 TRANSLATION FROM L1D PREFETCHER ACCESS:     189342  HIT:     189342  MISS:          0  HIT %:        100  MISS %:          0   MPKI: 0
PSCL3 PREFETCH  REQUESTED:          0  ISSUED:          0  USEFUL:          0  USELESS:          0
PSCL3 USEFUL LOAD PREFETCHES:          0 PREFETCH ISSUED TO LOWER LEVEL:          0  ACCURACY: -nan
PSCL3 TIMELY PREFETCHES:          0 LATE PREFETCHES: 0 DROPPED PREFETCHES: 0
PSCL3 PREFETCHES SAME FILL-ORIGIN LEVEL: 0 DIFFERENT FILL-ORIGIN LEVEL: 0

PSCL2 TOTAL     ACCESS:     184098  HIT:     184072  MISS:         26  HIT %:    99.9859  MISS %:  0.0141229   MPKI: 0.00013
PSCL2 LOAD TRANSLATION ACCESS:       1385  HIT:       1359  MISS:         26  HIT %:    98.1227  MISS %:    1.87726   MPKI: 0.00013
PSCL2 TRANSLATION FROM L1D PREFETCHER ACCESS:     182713  HIT:     182713  MISS:          0  HIT %:        100  MISS %:          0   MPKI: 0
PSCL2 PREFETCH  REQUESTED:          0  ISSUED:          0  USEFUL:          0  USELESS:          0
PSCL2 USEFUL LOAD PREFETCHES:          0 PREFETCH ISSUED TO LOWER LEVEL:          0  ACCURACY: -nan
PSCL2 TIMELY PREFETCHES:          0 LATE PREFETCHES: 0 DROPPED PREFETCHES: 0
PSCL2 PREFETCHES SAME FILL-ORIGIN LEVEL: 0 DIFFERENT FILL-ORIGIN LEVEL: 0

LLC TOTAL     ACCESS:      51967  HIT:       2762  MISS:      49205  HIT %:    5.31491  MISS %:    94.6851   MPKI: 0.246025
LLC LOAD      ACCESS:       3122  HIT:        229  MISS:       2893  HIT %:    7.33504  MISS %:     92.665   MPKI: 0.014465
LLC RFO       ACCESS:         85  HIT:         72  MISS:         13  HIT %:    84.7059  MISS %:    15.2941   MPKI: 6.5e-05
LLC PREFETCH  ACCESS:      47533  HIT:       1771  MISS:      45762  HIT %:    3.72583  MISS %:    96.2742   MPKI: 0.22881
LLC WRITEBACK ACCESS:        754  HIT:        522  MISS:        232  HIT %:    69.2308  MISS %:    30.7692   MPKI: 0.00116
LLC LOAD TRANSLATION ACCESS:        309  HIT:        123  MISS:        186  HIT %:    39.8058  MISS %:    60.1942   MPKI: 0.00093
LLC TRANSLATION FROM L1D PREFETCHER ACCESS:        164  HIT:         45  MISS:        119  HIT %:     27.439  MISS %:     72.561   MPKI: 0.000595
LLC PREFETCH  REQUESTED:          0  ISSUED:          0  USEFUL:        123  USELESS:      28481
LLC USEFUL LOAD PREFETCHES:        123 PREFETCH ISSUED TO LOWER LEVEL:      45762  ACCURACY: 0.268782
LLC TIMELY PREFETCHES:        123 LATE PREFETCHES: 0 DROPPED PREFETCHES: 0
LLC PREFETCHES SAME FILL-ORIGIN LEVEL: 0 DIFFERENT FILL-ORIGIN LEVEL: 0
LLC AVERAGE MISS LATENCY: 90.5019 cycles
LLC RQ	ACCESS:       3680	FORWARD:          0	MERGED:          0	TO_CACHE:       3680
LLC WQ	ACCESS:        754	FORWARD:          0	MERGED:          0	TO_CACHE:        754
LLC PQ	ACCESS:      47533	FORWARD:          0	MERGED:          0	TO_CACHE:      47533

LLC Dense regions hint to LLC: 0

RAW hits: 4032887
Loads Generated: 57451317
Loads sent to L1D: 53418429
Stores Generated: 22673113
Stores sent to L1D: 22673120
Major fault: 0 Minor fault: 1933
Allocated PAGES: 1933

DRAM Statistics
 CHANNEL 0
 RQ ROW_BUFFER_HIT:      42130  ROW_BUFFER_MISS:       6843
 DBUS_CONGESTED:          0
 WQ ROW_BUFFER_HIT:          0  ROW_BUFFER_MISS:        179  FULL:          0

 AVG_CONGESTED_CYCLE: -
 All warmup complete: 2
Channel 0 Bank busy for read cycles: 0
Channel 0 Bank busy for write cycles: 0
Channel 0
Rank 0
0banks busy for read cycles: 290847871
0banks busy for write cycles: 160
1banks busy for read cycles: 1466359
1banks busy for write cycles: 21913
2banks busy for read cycles: 344307
2banks busy for write cycles: 1763
3banks busy for read cycles: 138043
3banks busy for write cycles: 379
4banks busy for read cycles: 31149
4banks busy for write cycles: 147
5banks busy for read cycles: 37624
5banks busy for write cycles: 0
6banks busy for read cycles: 34269
6banks busy for write cycles: 0
7banks busy for read cycles: 3591
7banks busy for write cycles: 0
8banks busy for read cycles: 2548
8banks busy for write cycles: 0

CPU 0 Branch Prediction Accuracy: 99.9815% MPKI: 0.01229 Average ROB Occupancy at Mispredict: 43.1867
Branch types
NOT_BRANCH: 180640190 90.3201%
BRANCH_DIRECT_JUMP: 1660136 0.830068%
BRANCH_INDIRECT: 60 3e-05%
BRANCH_CONDITIONAL: 13276553 6.63828%
BRANCH_DIRECT_CALL: 2211376 1.10569%
BRANCH_INDIRECT_CALL: 0 0%
BRANCH_RETURN: 2211377 1.10569%
BRANCH_OTHER: 0 0%

DRAM PAGES: 1048576
Allocated PAGES: 1933
