 (TOTAL 67349)
 
*** ChampSim Multicore Out-of-Order Simulator ***

Warmup Instructions: 50000000
Simulation Instructions: 200000000
Number of CPUs: 1
LLC sets: 2048
LLC ways: 16
Off-chip DRAM Size: 4096 MB Channels: 1 Width: 64-bit Data Rate: 6400 MT/s
argv[0]: ./ChampSim/Berti/bin/tagescl8kb-no-vberti-no-no-no-no-no-lru-lru-lru-srrip-drrip-lru-lru-lru-1core-no
argv[1]: -warmup_instructions
argv[2]: 50000000
argv[3]: -simulation_instructions
argv[4]: 200000000
argv[5]: -traces
argv[6]: traces/spec2k17_ten/644.nab_s-9322B.champsimtrace.xz
CPU 0 runs traces/spec2k17_ten/644.nab_s-9322B.champsimtrace.xz
.xz
CPU 0 Tage branch predictor
BTB has LRU replacement policy
ITLB has LRU replacement policy
DTLB has LRU replacement policy
STLB has LRU replacement policy
L1I has LRU replacement policy
History Sets: 8
History Ways: 16
BERTI Size: 16
BERTI Stride Size: 16
L1D has LRU replacement policy
Initialize SRRIP state for L2C
Initialize DRRIP state for LLC
Heartbeat CPU 0 instructions: 10000002 cycles: 3462856 heartbeat IPC: 2.88779 cumulative IPC: 2.88779 (Simulation time: 0 hr 4 min 54 sec) 
Heartbeat CPU 0 instructions: 20000003 cycles: 6926342 heartbeat IPC: 2.88726 cumulative IPC: 2.88753 (Simulation time: 0 hr 13 min 28 sec) 
Heartbeat CPU 0 instructions: 30000002 cycles: 10387022 heartbeat IPC: 2.88961 cumulative IPC: 2.88822 (Simulation time: 0 hr 20 min 57 sec) 
Heartbeat CPU 0 instructions: 40000001 cycles: 13847179 heartbeat IPC: 2.89004 cumulative IPC: 2.88867 (Simulation time: 0 hr 26 min 48 sec) 
Heartbeat CPU 0 instructions: 50000003 cycles: 17308990 heartbeat IPC: 2.88866 cumulative IPC: 2.88867 (Simulation time: 0 hr 34 min 29 sec) 

Warmup complete CPU 0 instructions: 50000003 cycles: 17308990 (Simulation time: 0 hr 34 min 29 sec) 

Heartbeat CPU 0 instructions: 60000000 cycles: 32580359 heartbeat IPC: 0.65482 cumulative IPC: 0.65482 (Simulation time: 0 hr 46 min 12 sec) 
Heartbeat CPU 0 instructions: 70000000 cycles: 47810899 heartbeat IPC: 0.656576 cumulative IPC: 0.655697 (Simulation time: 0 hr 54 min 13 sec) 
Heartbeat CPU 0 instructions: 80000000 cycles: 63046247 heartbeat IPC: 0.656368 cumulative IPC: 0.65592 (Simulation time: 1 hr 1 min 52 sec) 
Heartbeat CPU 0 instructions: 90000000 cycles: 78322905 heartbeat IPC: 0.654593 cumulative IPC: 0.655588 (Simulation time: 1 hr 7 min 8 sec) 
Heartbeat CPU 0 instructions: 100000002 cycles: 93609485 heartbeat IPC: 0.654169 cumulative IPC: 0.655304 (Simulation time: 1 hr 11 min 4 sec) 
Heartbeat CPU 0 instructions: 110000000 cycles: 108852938 heartbeat IPC: 0.656019 cumulative IPC: 0.655423 (Simulation time: 1 hr 14 min 40 sec) 
Heartbeat CPU 0 instructions: 120000000 cycles: 124129301 heartbeat IPC: 0.654606 cumulative IPC: 0.655306 (Simulation time: 1 hr 19 min 0 sec) 
Heartbeat CPU 0 instructions: 130000000 cycles: 139380281 heartbeat IPC: 0.655696 cumulative IPC: 0.655355 (Simulation time: 1 hr 22 min 18 sec) 
Heartbeat CPU 0 instructions: 140000000 cycles: 154610163 heartbeat IPC: 0.656604 cumulative IPC: 0.655493 (Simulation time: 1 hr 25 min 5 sec) 
Heartbeat CPU 0 instructions: 150000001 cycles: 169931013 heartbeat IPC: 0.652705 cumulative IPC: 0.655213 (Simulation time: 1 hr 27 min 32 sec) 
Heartbeat CPU 0 instructions: 160000000 cycles: 185221037 heartbeat IPC: 0.654021 cumulative IPC: 0.655105 (Simulation time: 1 hr 29 min 38 sec) 
Heartbeat CPU 0 instructions: 170000003 cycles: 200488812 heartbeat IPC: 0.654974 cumulative IPC: 0.655094 (Simulation time: 1 hr 31 min 23 sec) 
Heartbeat CPU 0 instructions: 180000001 cycles: 215787438 heartbeat IPC: 0.653653 cumulative IPC: 0.654983 (Simulation time: 1 hr 32 min 47 sec) 
Heartbeat CPU 0 instructions: 190000001 cycles: 231065293 heartbeat IPC: 0.654542 cumulative IPC: 0.654951 (Simulation time: 1 hr 34 min 13 sec) 
Heartbeat CPU 0 instructions: 200000001 cycles: 246361904 heartbeat IPC: 0.65374 cumulative IPC: 0.654871 (Simulation time: 1 hr 35 min 34 sec) 
Heartbeat CPU 0 instructions: 210000001 cycles: 261621185 heartbeat IPC: 0.655339 cumulative IPC: 0.6549 (Simulation time: 1 hr 36 min 27 sec) 
Heartbeat CPU 0 instructions: 220000000 cycles: 276879128 heartbeat IPC: 0.655396 cumulative IPC: 0.654929 (Simulation time: 1 hr 37 min 18 sec) 
Heartbeat CPU 0 instructions: 230000000 cycles: 292089113 heartbeat IPC: 0.657463 cumulative IPC: 0.655069 (Simulation time: 1 hr 38 min 8 sec) 
Heartbeat CPU 0 instructions: 240000002 cycles: 307274487 heartbeat IPC: 0.658529 cumulative IPC: 0.65525 (Simulation time: 1 hr 38 min 58 sec) 
Heartbeat CPU 0 instructions: 250000000 cycles: 322527112 heartbeat IPC: 0.655625 cumulative IPC: 0.655269 (Simulation time: 1 hr 39 min 46 sec) 
Finished CPU 0 instructions: 200000000 cycles: 305218126 cumulative IPC: 0.655269 (Simulation time: 1 hr 39 min 46 sec) 

ChampSim completed all CPUs

Region of Interest Statistics

CPU 0 cumulative IPC: 0.655269 instructions: 200000000 cycles: 305218126
ITLB TOTAL     ACCESS:   33646905  HIT:   33646905  MISS:          0  HIT %:        100  MISS %:          0   MPKI: 0
ITLB LOAD TRANSLATION ACCESS:   33646905  HIT:   33646905  MISS:          0  HIT %:        100  MISS %:          0   MPKI: 0
ITLB PREFETCH  REQUESTED:          0  ISSUED:          0  USEFUL:          0  USELESS:          0
ITLB USEFUL LOAD PREFETCHES:          0 PREFETCH ISSUED TO LOWER LEVEL:          0  ACCURACY: -nan
ITLB TIMELY PREFETCHES:          0 LATE PREFETCHES: 0 DROPPED PREFETCHES: 0
ITLB PREFETCHES SAME FILL-ORIGIN LEVEL: 0 DIFFERENT FILL-ORIGIN LEVEL: 0
ITLB AVERAGE MISS LATENCY: -nan cycles
ITLB RQ	ACCESS:   37996018	FORWARD:          0	MERGED:    4349114	TO_CACHE:   33646904

DTLB TOTAL     ACCESS:   46336126  HIT:   46257507  MISS:      78619  HIT %:    99.8303  MISS %:   0.169671   MPKI: 0.393095
DTLB LOAD TRANSLATION ACCESS:   46336126  HIT:   46257507  MISS:      78619  HIT %:    99.8303  MISS %:   0.169671   MPKI: 0.393095
DTLB PREFETCH  REQUESTED:          0  ISSUED:          0  USEFUL:          0  USELESS:          0
DTLB USEFUL LOAD PREFETCHES:          0 PREFETCH ISSUED TO LOWER LEVEL:          0  ACCURACY: -nan
DTLB TIMELY PREFETCHES:          0 LATE PREFETCHES: 0 DROPPED PREFETCHES: 0
DTLB PREFETCHES SAME FILL-ORIGIN LEVEL: 0 DIFFERENT FILL-ORIGIN LEVEL: 0
DTLB AVERAGE MISS LATENCY: 13.3198 cycles
DTLB RQ	ACCESS:   55610098	FORWARD:          0	MERGED:    9272141	TO_CACHE:   46337957

STLB TOTAL     ACCESS:   10820197  HIT:   10817709  MISS:       2488  HIT %:     99.977  MISS %:   0.022994   MPKI: 0.01244
STLB LOAD TRANSLATION ACCESS:      78619  HIT:      76141  MISS:       2478  HIT %:    96.8481  MISS %:    3.15191   MPKI: 0.01239
STLB TRANSLATION FROM L1D PREFETCHER ACCESS:   10741578  HIT:   10741568  MISS:         10  HIT %:    99.9999  MISS %: 9.30962e-05   MPKI: 5e-05
STLB PREFETCH  REQUESTED:          0  ISSUED:          0  USEFUL:         10  USELESS:          0
STLB USEFUL LOAD PREFETCHES:         10 PREFETCH ISSUED TO LOWER LEVEL:          0  ACCURACY: inf
STLB TIMELY PREFETCHES:         10 LATE PREFETCHES: 15 DROPPED PREFETCHES: 215249
STLB PREFETCHES SAME FILL-ORIGIN LEVEL: 0 DIFFERENT FILL-ORIGIN LEVEL: 0
STLB AVERAGE MISS LATENCY: 136.169 cycles
STLB RQ	ACCESS:   49623531	FORWARD:          0	MERGED:   38587627	TO_CACHE:   11035904

STLB Hit, L1D data hit: 0
STLB Hit, L2C data hit: 0
STLB Hit, LLC data hit: 0
STLB Hit, LLC data miss: 0
STLB STLB hints to L2: 0
L1D TOTAL     ACCESS:   88449834  HIT:   86258085  MISS:    2191749  HIT %:     97.522  MISS %:    2.47796   MPKI: 10.9587
L1D LOAD      ACCESS:   52236141  HIT:   51653000  MISS:     583141  HIT %:    98.8836  MISS %:    1.11636   MPKI: 2.9157
L1D RFO       ACCESS:    3344768  HIT:    3343863  MISS:        905  HIT %:    99.9729  MISS %:  0.0270572   MPKI: 0.004525
L1D PREFETCH  ACCESS:   32868925  HIT:   31261222  MISS:    1607703  HIT %:    95.1087  MISS %:    4.89126   MPKI: 8.03852
L1D PREFETCH  REQUESTED:  103878707  ISSUED:   99870496  USEFUL:    1208855  USELESS:     398953
L1D USEFUL LOAD PREFETCHES:    1208855 PREFETCH ISSUED TO LOWER LEVEL:   17836353  ACCURACY: 6.77748
L1D TIMELY PREFETCHES:    1208855 LATE PREFETCHES: 211 DROPPED PREFETCHES: 426624
L1D PREFETCHES SAME FILL-ORIGIN LEVEL: 1607914 DIFFERENT FILL-ORIGIN LEVEL: 16228439
L1D AVERAGE MISS LATENCY: 17.9964 cycles
L1D RQ	ACCESS:   60701524	FORWARD:          0	MERGED:    8431627	TO_CACHE:   52265330
L1D WQ	ACCESS:    3646099	FORWARD:       4567	MERGED:     301331	TO_CACHE:    3344768
L1D PQ	ACCESS:   50325584	FORWARD:          0	MERGED:     780672	TO_CACHE:   49544912

L1D UNIQUE REGIONS ACCESSED: 0
L1D REGIONS CONFLICTS: 0
L1D Cross Page Prefetch Requests: 5261517
L1D Same Page Prefetch Requests: 55842378
L1D ROI Sum of L1D PQ occupancy: 757110930
L1D PREFETCHES PUSHED FROM L2C: 0
L1I TOTAL     ACCESS:   37996019  HIT:   37996019  MISS:          0  HIT %:        100  MISS %:          0   MPKI: 0
L1I LOAD      ACCESS:   37996019  HIT:   37996019  MISS:          0  HIT %:        100  MISS %:          0   MPKI: 0
L1I PREFETCH  REQUESTED:          0  ISSUED:          0  USEFUL:          0  USELESS:          0
L1I USEFUL LOAD PREFETCHES:          0 PREFETCH ISSUED TO LOWER LEVEL:          0  ACCURACY: -nan
L1I TIMELY PREFETCHES:          0 LATE PREFETCHES: 0 DROPPED PREFETCHES: 0
L1I PREFETCHES SAME FILL-ORIGIN LEVEL: 0 DIFFERENT FILL-ORIGIN LEVEL: 0
L1I AVERAGE MISS LATENCY: -nan cycles
L1I RQ	ACCESS:   57354559	FORWARD:          0	MERGED:   19358541	TO_CACHE:   37996018

BTB TOTAL     ACCESS:   24544770  HIT:   24536493  MISS:       8277  HIT %:    99.9663  MISS %:  0.0337221   MPKI: 0.041385
BTB BRANCH_DIRECT_JUMP	ACCESS:    4173606  HIT:    4173581  MISS:         25
BTB BRANCH_INDIRECT	ACCESS:          0  HIT:          0  MISS:          0
BTB BRANCH_CONDITIONAL	ACCESS:   19704216  HIT:   19704176  MISS:         40
BTB BRANCH_DIRECT_CALL	ACCESS:     333474  HIT:     333471  MISS:          3
BTB BRANCH_INDIRECT_CALL	ACCESS:          0  HIT:          0  MISS:          0
BTB BRANCH_RETURN	ACCESS:     333474  HIT:     325265  MISS:       8209
BTB BRANCH_OTHER ACCESS:          0  HIT:          0  MISS:          0

L2C TOTAL     ACCESS:   18618821  HIT:   18427038  MISS:     191783  HIT %:      98.97  MISS %:    1.03005   MPKI: 0.958915
L2C LOAD      ACCESS:     582930  HIT:     574441  MISS:       8489  HIT %:    98.5437  MISS %:    1.45626   MPKI: 0.042445
L2C DATA LOAD MPKI: 0.042445
L2C INSTRUCTION LOAD MPKI: 0
L2C RFO       ACCESS:        905  HIT:        791  MISS:        114  HIT %:    87.4033  MISS %:    12.5967   MPKI: 0.00057
L2C PREFETCH  ACCESS:   17799585  HIT:   17617520  MISS:     182065  HIT %:    98.9771  MISS %:    1.02286   MPKI: 0.910325
L2C DATA PREFETCH MPKI: 0.910325
L2C INSTRUCTION PREFETCH MPKI: 0
L2C WRITEBACK ACCESS:        905  HIT:        904  MISS:          1  HIT %:    99.8895  MISS %:   0.110497   MPKI: 5e-06
L2C LOAD TRANSLATION ACCESS:       2483  HIT:       2068  MISS:        415  HIT %:    83.2863  MISS %:    16.7137   MPKI: 0.002075
L2C TRANSLATION FROM L1D PREFETCHER ACCESS:     232013  HIT:     231314  MISS:        699  HIT %:    99.6987  MISS %:   0.301276   MPKI: 0.003495
L2C PREFETCH  REQUESTED:          0  ISSUED:          0  USEFUL:      14188  USELESS:     168905
L2C USEFUL LOAD PREFETCHES:      14188 PREFETCH ISSUED TO LOWER LEVEL:     182068  ACCURACY: 7.79269
L2C TIMELY PREFETCHES:      14188 LATE PREFETCHES: 3 DROPPED PREFETCHES: 0
L2C PREFETCHES SAME FILL-ORIGIN LEVEL: 133844 DIFFERENT FILL-ORIGIN LEVEL: 0
L2C AVERAGE MISS LATENCY: 98.4882 cycles
L2C RQ	ACCESS:     818331	FORWARD:          0	MERGED:          0	TO_CACHE:     818331
L2C WQ	ACCESS:        905	FORWARD:          0	MERGED:          0	TO_CACHE:        905
L2C PQ	ACCESS:   17836353	FORWARD:          0	MERGED:         49	TO_CACHE:   17836304

L2C Instructions Evicting Data 0
L2C Translations Evicting Data 1110
L2C Data Evicting Data 189527
L2C Instructions Evicting Instructions 0
L2C Translations Evicting Instructions 0
L2C Data Evicting Instructions 0
L2C Instructions Evicting Translations 0
L2C Translations Evicting Translations 4
L2C Data Evicting Translations 1141
L2C Dense regions hint from L2: 0
PSCL5 TOTAL     ACCESS:     217752  HIT:     217752  MISS:          0  HIT %:        100  MISS %:          0   MPKI: 0
PSCL5 LOAD TRANSLATION ACCESS:       2478  HIT:       2478  MISS:          0  HIT %:        100  MISS %:          0   MPKI: 0
PSCL5 TRANSLATION FROM L1D PREFETCHER ACCESS:     215274  HIT:     215274  MISS:          0  HIT %:        100  MISS %:          0   MPKI: 0
PSCL5 PREFETCH  REQUESTED:          0  ISSUED:          0  USEFUL:          0  USELESS:          0
PSCL5 USEFUL LOAD PREFETCHES:          0 PREFETCH ISSUED TO LOWER LEVEL:          0  ACCURACY: -nan
PSCL5 TIMELY PREFETCHES:          0 LATE PREFETCHES: 0 DROPPED PREFETCHES: 0
PSCL5 PREFETCHES SAME FILL-ORIGIN LEVEL: 0 DIFFERENT FILL-ORIGIN LEVEL: 0

PSCL4 TOTAL     ACCESS:     217752  HIT:     217752  MISS:          0  HIT %:        100  MISS %:          0   MPKI: 0
PSCL4 LOAD TRANSLATION ACCESS:       2478  HIT:       2478  MISS:          0  HIT %:        100  MISS %:          0   MPKI: 0
PSCL4 TRANSLATION FROM L1D PREFETCHER ACCESS:     215274  HIT:     215274  MISS:          0  HIT %:        100  MISS %:          0   MPKI: 0
PSCL4 PREFETCH  REQUESTED:          0  ISSUED:          0  USEFUL:          0  USELESS:          0
PSCL4 USEFUL LOAD PREFETCHES:          0 PREFETCH ISSUED TO LOWER LEVEL:          0  ACCURACY: -nan
PSCL4 TIMELY PREFETCHES:          0 LATE PREFETCHES: 0 DROPPED PREFETCHES: 0
PSCL4 PREFETCHES SAME FILL-ORIGIN LEVEL: 0 DIFFERENT FILL-ORIGIN LEVEL: 0

PSCL3 TOTAL     ACCESS:     217752  HIT:     217752  MISS:          0  HIT %:        100  MISS %:          0   MPKI: 0
PSCL3 LOAD TRANSLATION ACCESS:       2478  HIT:       2478  MISS:          0  HIT %:        100  MISS %:          0   MPKI: 0
PSCL3 TRANSLATION FROM L1D PREFETCHER ACCESS:     215274  HIT:     215274  MISS:          0  HIT %:        100  MISS %:          0   MPKI: 0
PSCL3 PREFETCH  REQUESTED:          0  ISSUED:          0  USEFUL:          0  USELESS:          0
PSCL3 USEFUL LOAD PREFETCHES:          0 PREFETCH ISSUED TO LOWER LEVEL:          0  ACCURACY: -nan
PSCL3 TIMELY PREFETCHES:          0 LATE PREFETCHES: 0 DROPPED PREFETCHES: 0
PSCL3 PREFETCHES SAME FILL-ORIGIN LEVEL: 0 DIFFERENT FILL-ORIGIN LEVEL: 0

PSCL2 TOTAL     ACCESS:     200950  HIT:     200931  MISS:         19  HIT %:    99.9905  MISS %: 0.00945509   MPKI: 9.5e-05
PSCL2 LOAD TRANSLATION ACCESS:       2478  HIT:       2459  MISS:         19  HIT %:    99.2333  MISS %:   0.766747   MPKI: 9.5e-05
PSCL2 TRANSLATION FROM L1D PREFETCHER ACCESS:     198472  HIT:     198472  MISS:          0  HIT %:        100  MISS %:          0   MPKI: 0
PSCL2 PREFETCH  REQUESTED:          0  ISSUED:          0  USEFUL:          0  USELESS:          0
PSCL2 USEFUL LOAD PREFETCHES:          0 PREFETCH ISSUED TO LOWER LEVEL:          0  ACCURACY: -nan
PSCL2 TIMELY PREFETCHES:          0 LATE PREFETCHES: 0 DROPPED PREFETCHES: 0
PSCL2 PREFETCHES SAME FILL-ORIGIN LEVEL: 0 DIFFERENT FILL-ORIGIN LEVEL: 0

LLC TOTAL     ACCESS:     191905  HIT:      44715  MISS:     147190  HIT %:    23.3006  MISS %:    76.6994   MPKI: 0.73595
LLC LOAD      ACCESS:       8486  HIT:       4154  MISS:       4332  HIT %:    48.9512  MISS %:    51.0488   MPKI: 0.02166
LLC RFO       ACCESS:        114  HIT:          0  MISS:        114  HIT %:          0  MISS %:        100   MPKI: 0.00057
LLC PREFETCH  ACCESS:     182068  HIT:      39812  MISS:     142256  HIT %:    21.8666  MISS %:    78.1334   MPKI: 0.71128
LLC WRITEBACK ACCESS:        123  HIT:        120  MISS:          3  HIT %:     97.561  MISS %:    2.43902   MPKI: 1.5e-05
LLC LOAD TRANSLATION ACCESS:        415  HIT:        136  MISS:        279  HIT %:    32.7711  MISS %:    67.2289   MPKI: 0.001395
LLC TRANSLATION FROM L1D PREFETCHER ACCESS:        699  HIT:        493  MISS:        206  HIT %:    70.5293  MISS %:    29.4707   MPKI: 0.00103
LLC PREFETCH  REQUESTED:          0  ISSUED:          0  USEFUL:       1059  USELESS:     141530
LLC USEFUL LOAD PREFETCHES:       1059 PREFETCH ISSUED TO LOWER LEVEL:     142256  ACCURACY: 0.744433
LLC TIMELY PREFETCHES:       1059 LATE PREFETCHES: 0 DROPPED PREFETCHES: 0
LLC PREFETCHES SAME FILL-ORIGIN LEVEL: 0 DIFFERENT FILL-ORIGIN LEVEL: 0
LLC AVERAGE MISS LATENCY: 89.1881 cycles
LLC RQ	ACCESS:       9714	FORWARD:          0	MERGED:          0	TO_CACHE:       9714
LLC WQ	ACCESS:        123	FORWARD:          0	MERGED:          0	TO_CACHE:        123
LLC PQ	ACCESS:     182068	FORWARD:          0	MERGED:          0	TO_CACHE:     182068

LLC Dense regions hint to LLC: 0

RAW hits: 1369296
Loads Generated: 62070822
Loads sent to L1D: 60701524
Stores Generated: 3646099
Stores sent to L1D: 3646099
Major fault: 0 Minor fault: 3391
Allocated PAGES: 3391

DRAM Statistics
 CHANNEL 0
 RQ ROW_BUFFER_HIT:     120404  ROW_BUFFER_MISS:      26783
 DBUS_CONGESTED:          0
 WQ ROW_BUFFER_HIT:          0  ROW_BUFFER_MISS:        118  FULL:          0

 AVG_CONGESTED_CYCLE: -
 All warmup complete: 2
Channel 0 Bank busy for read cycles: 0
Channel 0 Bank busy for write cycles: 0
Channel 0
Rank 0
0banks busy for read cycles: 296730540
0banks busy for write cycles: 114
1banks busy for read cycles: 7830378
1banks busy for write cycles: 16594
2banks busy for read cycles: 279532
2banks busy for write cycles: 595
3banks busy for read cycles: 94676
3banks busy for write cycles: 0
4banks busy for read cycles: 81615
4banks busy for write cycles: 0
5banks busy for read cycles: 101363
5banks busy for write cycles: 0
6banks busy for read cycles: 59780
6banks busy for write cycles: 0
7banks busy for read cycles: 11282
7banks busy for write cycles: 0
8banks busy for read cycles: 11658
8banks busy for write cycles: 0

CPU 0 Branch Prediction Accuracy: 97.9643% MPKI: 2.12829 Average ROB Occupancy at Mispredict: 139.241
Branch types
NOT_BRANCH: 174249442 87.1247%
BRANCH_DIRECT_JUMP: 4173606 2.0868%
BRANCH_INDIRECT: 0 0%
BRANCH_CONDITIONAL: 20909737 10.4549%
BRANCH_DIRECT_CALL: 333474 0.166737%
BRANCH_INDIRECT_CALL: 0 0%
BRANCH_RETURN: 333474 0.166737%
BRANCH_OTHER: 0 0%

DRAM PAGES: 1048576
Allocated PAGES: 3391
