
*** ChampSim Multicore Out-of-Order Simulator ***

Warmup Instructions: 50000000
Simulation Instructions: 200000000
Number of CPUs: 1
LLC sets: 2048
LLC ways: 16
Off-chip DRAM Size: 4096 MB Channels: 1 Width: 64-bit Data Rate: 6400 MT/s
argv[0]: ./ChampSim/Berti/bin/multiperspective_perceptron8kb-no-vberti-no-no-no-no-no-lru-lru-lru-srrip-drrip-lru-lru-lru-1core-no
argv[1]: -warmup_instructions
argv[2]: 50000000
argv[3]: -simulation_instructions
argv[4]: 200000000
argv[5]: -traces
argv[6]: traces/spec2k17_ten/627.cam4_s-490B.champsimtrace.xz
CPU 0 runs traces/spec2k17_ten/627.cam4_s-490B.champsimtrace.xz
.xz
CPU 0 Multiperspective perceptron branch predictor
BTB has LRU replacement policy
ITLB has LRU replacement policy
DTLB has LRU replacement policy
STLB has LRU replacement policy
L1I has LRU replacement policy
History Sets: 8
History Ways: 16
BERTI Size: 16
BERTI Stride Size: 16
L1D has LRU replacement policy
Initialize SRRIP state for L2C
Initialize DRRIP state for LLC
Heartbeat CPU 0 instructions: 10000002 cycles: 2951087 heartbeat IPC: 3.38858 cumulative IPC: 3.38858 (Simulation time: 0 hr 11 min 10 sec) 
Heartbeat CPU 0 instructions: 20000002 cycles: 5891222 heartbeat IPC: 3.4012 cumulative IPC: 3.39488 (Simulation time: 0 hr 17 min 58 sec) 
Heartbeat CPU 0 instructions: 30000003 cycles: 8815304 heartbeat IPC: 3.41988 cumulative IPC: 3.40317 (Simulation time: 0 hr 21 min 50 sec) 
Heartbeat CPU 0 instructions: 40000000 cycles: 11755122 heartbeat IPC: 3.40157 cumulative IPC: 3.40277 (Simulation time: 0 hr 28 min 16 sec) 
Heartbeat CPU 0 instructions: 50000002 cycles: 14690803 heartbeat IPC: 3.40637 cumulative IPC: 3.40349 (Simulation time: 0 hr 32 min 18 sec) 

Warmup complete CPU 0 instructions: 50000002 cycles: 14690803 (Simulation time: 0 hr 32 min 18 sec) 

Heartbeat CPU 0 instructions: 60000002 cycles: 28251729 heartbeat IPC: 0.737413 cumulative IPC: 0.737413 (Simulation time: 0 hr 38 min 0 sec) 
Heartbeat CPU 0 instructions: 70000000 cycles: 41403346 heartbeat IPC: 0.760363 cumulative IPC: 0.748712 (Simulation time: 0 hr 43 min 49 sec) 
Heartbeat CPU 0 instructions: 80000003 cycles: 54841437 heartbeat IPC: 0.744154 cumulative IPC: 0.747186 (Simulation time: 0 hr 50 min 51 sec) 
Heartbeat CPU 0 instructions: 90000002 cycles: 68046234 heartbeat IPC: 0.7573 cumulative IPC: 0.749689 (Simulation time: 0 hr 57 min 9 sec) 
Heartbeat CPU 0 instructions: 100000000 cycles: 81452254 heartbeat IPC: 0.745933 cumulative IPC: 0.748935 (Simulation time: 1 hr 4 min 51 sec) 
Heartbeat CPU 0 instructions: 110000000 cycles: 94800135 heartbeat IPC: 0.749183 cumulative IPC: 0.748976 (Simulation time: 1 hr 12 min 48 sec) 
Heartbeat CPU 0 instructions: 120000001 cycles: 108267596 heartbeat IPC: 0.742531 cumulative IPC: 0.748049 (Simulation time: 1 hr 17 min 5 sec) 
Heartbeat CPU 0 instructions: 130000000 cycles: 121718721 heartbeat IPC: 0.743432 cumulative IPC: 0.747469 (Simulation time: 1 hr 23 min 12 sec) 
Heartbeat CPU 0 instructions: 140000001 cycles: 135146478 heartbeat IPC: 0.744726 cumulative IPC: 0.747163 (Simulation time: 1 hr 30 min 38 sec) 
Heartbeat CPU 0 instructions: 150000003 cycles: 148728553 heartbeat IPC: 0.736265 cumulative IPC: 0.746058 (Simulation time: 1 hr 36 min 43 sec) 
Heartbeat CPU 0 instructions: 160000001 cycles: 162166859 heartbeat IPC: 0.744141 cumulative IPC: 0.745884 (Simulation time: 1 hr 41 min 18 sec) 
Heartbeat CPU 0 instructions: 170000000 cycles: 175856904 heartbeat IPC: 0.730458 cumulative IPC: 0.744573 (Simulation time: 1 hr 45 min 56 sec) 
Heartbeat CPU 0 instructions: 180000001 cycles: 189330354 heartbeat IPC: 0.7422 cumulative IPC: 0.74439 (Simulation time: 1 hr 51 min 10 sec) 
Heartbeat CPU 0 instructions: 190000001 cycles: 203050846 heartbeat IPC: 0.728837 cumulative IPC: 0.743257 (Simulation time: 1 hr 57 min 16 sec) 
Heartbeat CPU 0 instructions: 200000001 cycles: 216724819 heartbeat IPC: 0.731316 cumulative IPC: 0.742449 (Simulation time: 2 hr 1 min 6 sec) 
Heartbeat CPU 0 instructions: 210000001 cycles: 230349796 heartbeat IPC: 0.733946 cumulative IPC: 0.741912 (Simulation time: 2 hr 5 min 21 sec) 
Heartbeat CPU 0 instructions: 220000000 cycles: 244092043 heartbeat IPC: 0.727683 cumulative IPC: 0.74106 (Simulation time: 2 hr 11 min 5 sec) 
Heartbeat CPU 0 instructions: 230000002 cycles: 257927075 heartbeat IPC: 0.722803 cumulative IPC: 0.740021 (Simulation time: 2 hr 16 min 47 sec) 
Heartbeat CPU 0 instructions: 240000000 cycles: 271574564 heartbeat IPC: 0.732735 cumulative IPC: 0.739634 (Simulation time: 2 hr 24 min 28 sec) 
Heartbeat CPU 0 instructions: 250000000 cycles: 285256295 heartbeat IPC: 0.730902 cumulative IPC: 0.739193 (Simulation time: 2 hr 30 min 0 sec) 
Finished CPU 0 instructions: 200000000 cycles: 270565494 cumulative IPC: 0.739193 (Simulation time: 2 hr 30 min 0 sec) 

ChampSim completed all CPUs

Region of Interest Statistics

CPU 0 cumulative IPC: 0.739193 instructions: 200000000 cycles: 270565494
ITLB TOTAL     ACCESS:   30895967  HIT:   30895967  MISS:          0  HIT %:        100  MISS %:          0   MPKI: 0
ITLB LOAD TRANSLATION ACCESS:   30895967  HIT:   30895967  MISS:          0  HIT %:        100  MISS %:          0   MPKI: 0
ITLB PREFETCH  REQUESTED:          0  ISSUED:          0  USEFUL:          0  USELESS:          0
ITLB USEFUL LOAD PREFETCHES:          0 PREFETCH ISSUED TO LOWER LEVEL:          0  ACCURACY: -nan
ITLB TIMELY PREFETCHES:          0 LATE PREFETCHES: 0 DROPPED PREFETCHES: 0
ITLB PREFETCHES SAME FILL-ORIGIN LEVEL: 0 DIFFERENT FILL-ORIGIN LEVEL: 0
ITLB AVERAGE MISS LATENCY: -nan cycles
ITLB RQ	ACCESS:   37444984	FORWARD:          0	MERGED:    6549018	TO_CACHE:   30895966

DTLB TOTAL     ACCESS:   33032492  HIT:   32969295  MISS:      63197  HIT %:    99.8087  MISS %:   0.191318   MPKI: 0.315985
DTLB LOAD TRANSLATION ACCESS:   33032492  HIT:   32969295  MISS:      63197  HIT %:    99.8087  MISS %:   0.191318   MPKI: 0.315985
DTLB PREFETCH  REQUESTED:          0  ISSUED:          0  USEFUL:          0  USELESS:          0
DTLB USEFUL LOAD PREFETCHES:          0 PREFETCH ISSUED TO LOWER LEVEL:          0  ACCURACY: -nan
DTLB TIMELY PREFETCHES:          0 LATE PREFETCHES: 0 DROPPED PREFETCHES: 0
DTLB PREFETCHES SAME FILL-ORIGIN LEVEL: 0 DIFFERENT FILL-ORIGIN LEVEL: 0
DTLB AVERAGE MISS LATENCY: 15.3746 cycles
DTLB RQ	ACCESS:   36902279	FORWARD:          0	MERGED:    3859135	TO_CACHE:   33043144

STLB TOTAL     ACCESS:   12027080  HIT:   12023710  MISS:       3370  HIT %:     99.972  MISS %:  0.0280201   MPKI: 0.01685
STLB LOAD TRANSLATION ACCESS:      63197  HIT:      59829  MISS:       3368  HIT %:    94.6706  MISS %:    5.32937   MPKI: 0.01684
STLB TRANSLATION FROM L1D PREFETCHER ACCESS:   11963883  HIT:   11963881  MISS:          2  HIT %:        100  MISS %: 1.6717e-05   MPKI: 1e-05
STLB PREFETCH  REQUESTED:          0  ISSUED:          0  USEFUL:          2  USELESS:          0
STLB USEFUL LOAD PREFETCHES:          2 PREFETCH ISSUED TO LOWER LEVEL:          0  ACCURACY: inf
STLB TIMELY PREFETCHES:          2 LATE PREFETCHES: 1134 DROPPED PREFETCHES: 54458
STLB PREFETCHES SAME FILL-ORIGIN LEVEL: 0 DIFFERENT FILL-ORIGIN LEVEL: 0
STLB AVERAGE MISS LATENCY: 108.08 cycles
STLB RQ	ACCESS:   71625234	FORWARD:          0	MERGED:   59523912	TO_CACHE:   12101322

STLB Hit, L1D data hit: 0
STLB Hit, L2C data hit: 0
STLB Hit, LLC data hit: 0
STLB Hit, LLC data miss: 0
STLB STLB hints to L2: 0
L1D TOTAL     ACCESS:   98537516  HIT:   94864710  MISS:    3672806  HIT %:    96.2727  MISS %:    3.72732   MPKI: 18.364
L1D LOAD      ACCESS:   23754251  HIT:   23483693  MISS:     270558  HIT %:     98.861  MISS %:    1.13899   MPKI: 1.35279
L1D RFO       ACCESS:    9728120  HIT:    8617702  MISS:    1110418  HIT %:    88.5855  MISS %:    11.4145   MPKI: 5.55209
L1D PREFETCH  ACCESS:   65055145  HIT:   62763315  MISS:    2291830  HIT %:    96.4771  MISS %:     3.5229   MPKI: 11.4591
L1D PREFETCH  REQUESTED:  174739037  ISSUED:  148855088  USEFUL:    2273815  USELESS:      17998
L1D USEFUL LOAD PREFETCHES:    2273815 PREFETCH ISSUED TO LOWER LEVEL:    7472182  ACCURACY: 30.4304
L1D TIMELY PREFETCHES:    2273815 LATE PREFETCHES: 27812 DROPPED PREFETCHES: 177540
L1D PREFETCHES SAME FILL-ORIGIN LEVEL: 2319644 DIFFERENT FILL-ORIGIN LEVEL: 5152538
L1D AVERAGE MISS LATENCY: 65.2356 cycles
L1D RQ	ACCESS:   32262434	FORWARD:          0	MERGED:    8398809	TO_CACHE:   23859569
L1D WQ	ACCESS:   13352728	FORWARD:       4063	MERGED:     310018	TO_CACHE:   13042710
L1D PQ	ACCESS:   77293051	FORWARD:          0	MERGED:    5731007	TO_CACHE:   71562037

L1D UNIQUE REGIONS ACCESSED: 0
L1D REGIONS CONFLICTS: 0
L1D Cross Page Prefetch Requests: 8286893
L1D Same Page Prefetch Requests: 87351760
L1D ROI Sum of L1D PQ occupancy: 1093404497
L1D PREFETCHES PUSHED FROM L2C: 0
L1I TOTAL     ACCESS:   37442281  HIT:   37437628  MISS:       4653  HIT %:    99.9876  MISS %:  0.0124271   MPKI: 0.023265
L1I LOAD      ACCESS:   37442281  HIT:   37437628  MISS:       4653  HIT %:    99.9876  MISS %:  0.0124271   MPKI: 0.023265
L1I PREFETCH  REQUESTED:          0  ISSUED:          0  USEFUL:          0  USELESS:          0
L1I USEFUL LOAD PREFETCHES:          0 PREFETCH ISSUED TO LOWER LEVEL:          0  ACCURACY: -nan
L1I TIMELY PREFETCHES:          0 LATE PREFETCHES: 0 DROPPED PREFETCHES: 0
L1I PREFETCHES SAME FILL-ORIGIN LEVEL: 0 DIFFERENT FILL-ORIGIN LEVEL: 0
L1I AVERAGE MISS LATENCY: 221.581 cycles
L1I RQ	ACCESS:   51176275	FORWARD:          0	MERGED:   13731291	TO_CACHE:   37444984

BTB TOTAL     ACCESS:   18846975  HIT:   18837119  MISS:       9856  HIT %:    99.9477  MISS %:  0.0522949   MPKI: 0.04928
BTB BRANCH_DIRECT_JUMP	ACCESS:     813921  HIT:     813889  MISS:         32
BTB BRANCH_INDIRECT	ACCESS:       3522  HIT:       3521  MISS:          1
BTB BRANCH_CONDITIONAL	ACCESS:   17966746  HIT:   17966491  MISS:        255
BTB BRANCH_DIRECT_CALL	ACCESS:      31393  HIT:      31275  MISS:        118
BTB BRANCH_INDIRECT_CALL	ACCESS:          0  HIT:          0  MISS:          0
BTB BRANCH_RETURN	ACCESS:      31393  HIT:      21943  MISS:       9450
BTB BRANCH_OTHER ACCESS:          0  HIT:          0  MISS:          0

L2C TOTAL     ACCESS:    9734812  HIT:    7483357  MISS:    2251455  HIT %:    76.8721  MISS %:    23.1279   MPKI: 11.2573
L2C LOAD      ACCESS:     247399  HIT:     174389  MISS:      73010  HIT %:     70.489  MISS %:     29.511   MPKI: 0.36505
L2C DATA LOAD MPKI: 0.341785
L2C INSTRUCTION LOAD MPKI: 0.023265
L2C RFO       ACCESS:    1110418  HIT:      50657  MISS:    1059761  HIT %:    4.56198  MISS %:     95.438   MPKI: 5.2988
L2C PREFETCH  ACCESS:    6752044  HIT:    5665161  MISS:    1086883  HIT %:    83.9029  MISS %:    16.0971   MPKI: 5.43442
L2C DATA PREFETCH MPKI: 5.43442
L2C INSTRUCTION PREFETCH MPKI: 0
L2C WRITEBACK ACCESS:    1565738  HIT:    1534710  MISS:      31028  HIT %:    98.0183  MISS %:    1.98169   MPKI: 0.15514
L2C LOAD TRANSLATION ACCESS:       3368  HIT:       3201  MISS:        167  HIT %:    95.0416  MISS %:    4.95843   MPKI: 0.000835
L2C TRANSLATION FROM L1D PREFETCHER ACCESS:      55845  HIT:      55239  MISS:        606  HIT %:    98.9149  MISS %:    1.08515   MPKI: 0.00303
L2C PREFETCH  REQUESTED:          0  ISSUED:          0  USEFUL:     136127  USELESS:     951019
L2C USEFUL LOAD PREFETCHES:     136127 PREFETCH ISSUED TO LOWER LEVEL:    1107893  ACCURACY: 12.287
L2C TIMELY PREFETCHES:     136127 LATE PREFETCHES: 21010 DROPPED PREFETCHES: 0
L2C PREFETCHES SAME FILL-ORIGIN LEVEL: 505025 DIFFERENT FILL-ORIGIN LEVEL: 0
L2C AVERAGE MISS LATENCY: 109.333 cycles
L2C RQ	ACCESS:    1417030	FORWARD:          0	MERGED:          0	TO_CACHE:    1417030
L2C WQ	ACCESS:    1565738	FORWARD:          0	MERGED:          0	TO_CACHE:    1565738
L2C PQ	ACCESS:    7472050	FORWARD:          0	MERGED:       1765	TO_CACHE:    7470285

L2C Instructions Evicting Data 4649
L2C Translations Evicting Data 771
L2C Data Evicting Data 2209604
L2C Instructions Evicting Instructions 0
L2C Translations Evicting Instructions 2
L2C Data Evicting Instructions 4632
L2C Instructions Evicting Translations 4
L2C Translations Evicting Translations 0
L2C Data Evicting Translations 765
L2C Dense regions hint from L2: 0
PSCL5 TOTAL     ACCESS:      58962  HIT:      58962  MISS:          0  HIT %:        100  MISS %:          0   MPKI: 0
PSCL5 LOAD TRANSLATION ACCESS:       3368  HIT:       3368  MISS:          0  HIT %:        100  MISS %:          0   MPKI: 0
PSCL5 TRANSLATION FROM L1D PREFETCHER ACCESS:      55594  HIT:      55594  MISS:          0  HIT %:        100  MISS %:          0   MPKI: 0
PSCL5 PREFETCH  REQUESTED:          0  ISSUED:          0  USEFUL:          0  USELESS:          0
PSCL5 USEFUL LOAD PREFETCHES:          0 PREFETCH ISSUED TO LOWER LEVEL:          0  ACCURACY: -nan
PSCL5 TIMELY PREFETCHES:          0 LATE PREFETCHES: 0 DROPPED PREFETCHES: 0
PSCL5 PREFETCHES SAME FILL-ORIGIN LEVEL: 0 DIFFERENT FILL-ORIGIN LEVEL: 0

PSCL4 TOTAL     ACCESS:      58962  HIT:      58962  MISS:          0  HIT %:        100  MISS %:          0   MPKI: 0
PSCL4 LOAD TRANSLATION ACCESS:       3368  HIT:       3368  MISS:          0  HIT %:        100  MISS %:          0   MPKI: 0
PSCL4 TRANSLATION FROM L1D PREFETCHER ACCESS:      55594  HIT:      55594  MISS:          0  HIT %:        100  MISS %:          0   MPKI: 0
PSCL4 PREFETCH  REQUESTED:          0  ISSUED:          0  USEFUL:          0  USELESS:          0
PSCL4 USEFUL LOAD PREFETCHES:          0 PREFETCH ISSUED TO LOWER LEVEL:          0  ACCURACY: -nan
PSCL4 TIMELY PREFETCHES:          0 LATE PREFETCHES: 0 DROPPED PREFETCHES: 0
PSCL4 PREFETCHES SAME FILL-ORIGIN LEVEL: 0 DIFFERENT FILL-ORIGIN LEVEL: 0

PSCL3 TOTAL     ACCESS:      58962  HIT:      58962  MISS:          0  HIT %:        100  MISS %:          0   MPKI: 0
PSCL3 LOAD TRANSLATION ACCESS:       3368  HIT:       3368  MISS:          0  HIT %:        100  MISS %:          0   MPKI: 0
PSCL3 TRANSLATION FROM L1D PREFETCHER ACCESS:      55594  HIT:      55594  MISS:          0  HIT %:        100  MISS %:          0   MPKI: 0
PSCL3 PREFETCH  REQUESTED:          0  ISSUED:          0  USEFUL:          0  USELESS:          0
PSCL3 USEFUL LOAD PREFETCHES:          0 PREFETCH ISSUED TO LOWER LEVEL:          0  ACCURACY: -nan
PSCL3 TIMELY PREFETCHES:          0 LATE PREFETCHES: 0 DROPPED PREFETCHES: 0
PSCL3 PREFETCHES SAME FILL-ORIGIN LEVEL: 0 DIFFERENT FILL-ORIGIN LEVEL: 0

PSCL2 TOTAL     ACCESS:      58698  HIT:      58696  MISS:          2  HIT %:    99.9966  MISS %: 0.00340727   MPKI: 1e-05
PSCL2 LOAD TRANSLATION ACCESS:       3368  HIT:       3366  MISS:          2  HIT %:    99.9406  MISS %:  0.0593824   MPKI: 1e-05
PSCL2 TRANSLATION FROM L1D PREFETCHER ACCESS:      55330  HIT:      55330  MISS:          0  HIT %:        100  MISS %:          0   MPKI: 0
PSCL2 PREFETCH  REQUESTED:          0  ISSUED:          0  USEFUL:          0  USELESS:          0
PSCL2 USEFUL LOAD PREFETCHES:          0 PREFETCH ISSUED TO LOWER LEVEL:          0  ACCURACY: -nan
PSCL2 TIMELY PREFETCHES:          0 LATE PREFETCHES: 0 DROPPED PREFETCHES: 0
PSCL2 PREFETCHES SAME FILL-ORIGIN LEVEL: 0 DIFFERENT FILL-ORIGIN LEVEL: 0

LLC TOTAL     ACCESS:    3444368  HIT:    2131651  MISS:    1312717  HIT %:     61.888  MISS %:     38.112   MPKI: 6.56358
LLC LOAD      ACCESS:      52000  HIT:      25200  MISS:      26800  HIT %:    48.4615  MISS %:    51.5385   MPKI: 0.134
LLC RFO       ACCESS:    1059761  HIT:     657054  MISS:     402707  HIT %:    62.0002  MISS %:    37.9998   MPKI: 2.01354
LLC PREFETCH  ACCESS:    1107882  HIT:     671315  MISS:     436567  HIT %:    60.5944  MISS %:    39.4056   MPKI: 2.18283
LLC WRITEBACK ACCESS:    1223952  HIT:     778057  MISS:     445895  HIT %:    63.5692  MISS %:    36.4308   MPKI: 2.22947
LLC LOAD TRANSLATION ACCESS:        167  HIT:          5  MISS:        162  HIT %:    2.99401  MISS %:     97.006   MPKI: 0.00081
LLC TRANSLATION FROM L1D PREFETCHER ACCESS:        606  HIT:         20  MISS:        586  HIT %:    3.30033  MISS %:    96.6997   MPKI: 0.00293
LLC PREFETCH  REQUESTED:          0  ISSUED:          0  USEFUL:       8260  USELESS:     433541
LLC USEFUL LOAD PREFETCHES:       8260 PREFETCH ISSUED TO LOWER LEVEL:     436567  ACCURACY: 1.89203
LLC TIMELY PREFETCHES:       8260 LATE PREFETCHES: 0 DROPPED PREFETCHES: 0
LLC PREFETCHES SAME FILL-ORIGIN LEVEL: 0 DIFFERENT FILL-ORIGIN LEVEL: 0
LLC AVERAGE MISS LATENCY: 138.81 cycles
LLC RQ	ACCESS:    1112534	FORWARD:          0	MERGED:          0	TO_CACHE:    1112534
LLC WQ	ACCESS:    1223952	FORWARD:         11	MERGED:          0	TO_CACHE:    1223952
LLC PQ	ACCESS:    1107893	FORWARD:          0	MERGED:          0	TO_CACHE:    1107882

LLC Dense regions hint to LLC: 0

RAW hits: 42750
Loads Generated: 32305184
Loads sent to L1D: 32262434
Stores Generated: 13352721
Stores sent to L1D: 13352728
Major fault: 0 Minor fault: 4902
Allocated PAGES: 4902

DRAM Statistics
 CHANNEL 0
 RQ ROW_BUFFER_HIT:     297752  ROW_BUFFER_MISS:     568803
 DBUS_CONGESTED:       1933
 WQ ROW_BUFFER_HIT:      98589  ROW_BUFFER_MISS:     423205  FULL:       5038

 AVG_CONGESTED_CYCLE: 5
 All warmup complete: 2
Channel 0 Bank busy for read cycles: 0
Channel 0 Bank busy for write cycles: 0
Channel 0
Rank 0
0banks busy for read cycles: 195135115
0banks busy for write cycles: 81899
1banks busy for read cycles: 27046093
1banks busy for write cycles: 11859804
2banks busy for read cycles: 8944611
2banks busy for write cycles: 3387426
3banks busy for read cycles: 3534579
3banks busy for write cycles: 1804266
4banks busy for read cycles: 2117877
4banks busy for write cycles: 1209036
5banks busy for read cycles: 1402420
5banks busy for write cycles: 902112
6banks busy for read cycles: 1170040
6banks busy for write cycles: 818766
7banks busy for read cycles: 1172300
7banks busy for write cycles: 1208343
8banks busy for read cycles: 2058157
8banks busy for write cycles: 6712651

CPU 0 Branch Prediction Accuracy: 94.8241% MPKI: 4.74297 Average ROB Occupancy at Mispredict: 17.4656
Branch types
NOT_BRANCH: 180792216 90.3961%
BRANCH_DIRECT_JUMP: 813921 0.406961%
BRANCH_INDIRECT: 3522 0.001761%
BRANCH_CONDITIONAL: 18327251 9.16363%
BRANCH_DIRECT_CALL: 31393 0.0156965%
BRANCH_INDIRECT_CALL: 0 0%
BRANCH_RETURN: 31393 0.0156965%
BRANCH_OTHER: 0 0%

DRAM PAGES: 1048576
Allocated PAGES: 4902
