
*** ChampSim Multicore Out-of-Order Simulator ***

Warmup Instructions: 50000000
Simulation Instructions: 200000000
Number of CPUs: 1
LLC sets: 2048
LLC ways: 16
Off-chip DRAM Size: 4096 MB Channels: 1 Width: 64-bit Data Rate: 6400 MT/s
argv[0]: ./ChampSim/Berti/bin/multiperspective_perceptron8kb-no-vberti-no-no-no-no-no-lru-lru-lru-srrip-drrip-lru-lru-lru-1core-no
argv[1]: -warmup_instructions
argv[2]: 50000000
argv[3]: -simulation_instructions
argv[4]: 200000000
argv[5]: -traces
argv[6]: traces/spec2k17_ten/627.cam4_s-573B.champsimtrace.xz
CPU 0 runs traces/spec2k17_ten/627.cam4_s-573B.champsimtrace.xz
.xz
CPU 0 Multiperspective perceptron branch predictor
BTB has LRU replacement policy
ITLB has LRU replacement policy
DTLB has LRU replacement policy
STLB has LRU replacement policy
L1I has LRU replacement policy
History Sets: 8
History Ways: 16
BERTI Size: 16
BERTI Stride Size: 16
L1D has LRU replacement policy
Initialize SRRIP state for L2C
Initialize DRRIP state for LLC
Heartbeat CPU 0 instructions: 10000000 cycles: 3151841 heartbeat IPC: 3.17275 cumulative IPC: 3.17275 (Simulation time: 0 hr 3 min 5 sec) 
Heartbeat CPU 0 instructions: 20000000 cycles: 5966462 heartbeat IPC: 3.55288 cumulative IPC: 3.35207 (Simulation time: 0 hr 6 min 43 sec) 
Heartbeat CPU 0 instructions: 30000002 cycles: 8777618 heartbeat IPC: 3.55726 cumulative IPC: 3.41778 (Simulation time: 0 hr 14 min 17 sec) 
Heartbeat CPU 0 instructions: 40000003 cycles: 11549179 heartbeat IPC: 3.60808 cumulative IPC: 3.46345 (Simulation time: 0 hr 19 min 12 sec) 
Heartbeat CPU 0 instructions: 50000002 cycles: 14376706 heartbeat IPC: 3.53666 cumulative IPC: 3.47785 (Simulation time: 0 hr 23 min 31 sec) 

Warmup complete CPU 0 instructions: 50000002 cycles: 14376706 (Simulation time: 0 hr 23 min 31 sec) 

Heartbeat CPU 0 instructions: 60000002 cycles: 30477482 heartbeat IPC: 0.621088 cumulative IPC: 0.621088 (Simulation time: 0 hr 29 min 44 sec) 
Heartbeat CPU 0 instructions: 70000000 cycles: 45562434 heartbeat IPC: 0.662912 cumulative IPC: 0.641319 (Simulation time: 0 hr 34 min 4 sec) 
Heartbeat CPU 0 instructions: 80000002 cycles: 60102153 heartbeat IPC: 0.687771 cumulative IPC: 0.65609 (Simulation time: 0 hr 38 min 56 sec) 
Heartbeat CPU 0 instructions: 90000003 cycles: 75177228 heartbeat IPC: 0.663347 cumulative IPC: 0.657889 (Simulation time: 0 hr 44 min 14 sec) 
Heartbeat CPU 0 instructions: 100000000 cycles: 90675637 heartbeat IPC: 0.645227 cumulative IPC: 0.655317 (Simulation time: 0 hr 51 min 33 sec) 
Heartbeat CPU 0 instructions: 110000000 cycles: 111581086 heartbeat IPC: 0.478344 cumulative IPC: 0.617256 (Simulation time: 1 hr 6 min 7 sec) 
Heartbeat CPU 0 instructions: 120000002 cycles: 124133690 heartbeat IPC: 0.796648 cumulative IPC: 0.637773 (Simulation time: 1 hr 12 min 11 sec) 
Heartbeat CPU 0 instructions: 130000000 cycles: 135965430 heartbeat IPC: 0.845184 cumulative IPC: 0.657956 (Simulation time: 1 hr 17 min 53 sec) 
Heartbeat CPU 0 instructions: 140000001 cycles: 147700300 heartbeat IPC: 0.852161 cumulative IPC: 0.675049 (Simulation time: 1 hr 21 min 55 sec) 
Heartbeat CPU 0 instructions: 150000003 cycles: 162613115 heartbeat IPC: 0.670564 cumulative IPC: 0.674598 (Simulation time: 1 hr 29 min 30 sec) 
Heartbeat CPU 0 instructions: 160000001 cycles: 178667778 heartbeat IPC: 0.622872 cumulative IPC: 0.669543 (Simulation time: 1 hr 34 min 37 sec) 
Heartbeat CPU 0 instructions: 170000001 cycles: 194332652 heartbeat IPC: 0.638371 cumulative IPC: 0.66683 (Simulation time: 1 hr 39 min 31 sec) 
Heartbeat CPU 0 instructions: 180000000 cycles: 208392147 heartbeat IPC: 0.711263 cumulative IPC: 0.67005 (Simulation time: 1 hr 43 min 55 sec) 
Heartbeat CPU 0 instructions: 190000000 cycles: 224089770 heartbeat IPC: 0.637039 cumulative IPC: 0.667579 (Simulation time: 1 hr 49 min 1 sec) 
Heartbeat CPU 0 instructions: 200000001 cycles: 238642774 heartbeat IPC: 0.687143 cumulative IPC: 0.668848 (Simulation time: 1 hr 54 min 38 sec) 
Heartbeat CPU 0 instructions: 210000000 cycles: 260427399 heartbeat IPC: 0.459039 cumulative IPC: 0.650272 (Simulation time: 2 hr 4 min 50 sec) 
Heartbeat CPU 0 instructions: 220000000 cycles: 273204978 heartbeat IPC: 0.782621 cumulative IPC: 0.656806 (Simulation time: 2 hr 8 min 18 sec) 
Heartbeat CPU 0 instructions: 230000003 cycles: 285163726 heartbeat IPC: 0.836208 cumulative IPC: 0.664729 (Simulation time: 2 hr 13 min 21 sec) 
Heartbeat CPU 0 instructions: 240000002 cycles: 296871776 heartbeat IPC: 0.854113 cumulative IPC: 0.672578 (Simulation time: 2 hr 16 min 57 sec) 
Heartbeat CPU 0 instructions: 250000000 cycles: 310582948 heartbeat IPC: 0.729332 cumulative IPC: 0.675205 (Simulation time: 2 hr 24 min 10 sec) 
Finished CPU 0 instructions: 200000002 cycles: 296206243 cumulative IPC: 0.675205 (Simulation time: 2 hr 24 min 10 sec) 

ChampSim completed all CPUs

Region of Interest Statistics

CPU 0 cumulative IPC: 0.675205 instructions: 200000002 cycles: 296206243
ITLB TOTAL     ACCESS:   30437929  HIT:   30434793  MISS:       3136  HIT %:    99.9897  MISS %:  0.0103029   MPKI: 0.01568
ITLB LOAD TRANSLATION ACCESS:   30437929  HIT:   30434793  MISS:       3136  HIT %:    99.9897  MISS %:  0.0103029   MPKI: 0.01568
ITLB PREFETCH  REQUESTED:          0  ISSUED:          0  USEFUL:          0  USELESS:          0
ITLB USEFUL LOAD PREFETCHES:          0 PREFETCH ISSUED TO LOWER LEVEL:          0  ACCURACY: -nan
ITLB TIMELY PREFETCHES:          0 LATE PREFETCHES: 0 DROPPED PREFETCHES: 0
ITLB PREFETCHES SAME FILL-ORIGIN LEVEL: 0 DIFFERENT FILL-ORIGIN LEVEL: 0
ITLB AVERAGE MISS LATENCY: 35.3517 cycles
ITLB RQ	ACCESS:   36629108	FORWARD:          0	MERGED:    6190273	TO_CACHE:   30438835

DTLB TOTAL     ACCESS:   34742580  HIT:   34609275  MISS:     133305  HIT %:    99.6163  MISS %:   0.383693   MPKI: 0.666525
DTLB LOAD TRANSLATION ACCESS:   34742580  HIT:   34609275  MISS:     133305  HIT %:    99.6163  MISS %:   0.383693   MPKI: 0.666525
DTLB PREFETCH  REQUESTED:          0  ISSUED:          0  USEFUL:          0  USELESS:          0
DTLB USEFUL LOAD PREFETCHES:          0 PREFETCH ISSUED TO LOWER LEVEL:          0  ACCURACY: -nan
DTLB TIMELY PREFETCHES:          0 LATE PREFETCHES: 0 DROPPED PREFETCHES: 0
DTLB PREFETCHES SAME FILL-ORIGIN LEVEL: 0 DIFFERENT FILL-ORIGIN LEVEL: 0
DTLB AVERAGE MISS LATENCY: 28.2304 cycles
DTLB RQ	ACCESS:   44329915	FORWARD:          0	MERGED:    9407919	TO_CACHE:   34921996

STLB TOTAL     ACCESS:    2997934  HIT:    2978384  MISS:      19550  HIT %:    99.3479  MISS %:   0.652116   MPKI: 0.09775
STLB LOAD TRANSLATION ACCESS:     136441  HIT:     117613  MISS:      18828  HIT %:    86.2006  MISS %:    13.7994   MPKI: 0.09414
STLB TRANSLATION FROM L1D PREFETCHER ACCESS:    2861493  HIT:    2860771  MISS:        722  HIT %:    99.9748  MISS %:  0.0252316   MPKI: 0.00361
STLB PREFETCH  REQUESTED:          0  ISSUED:          0  USEFUL:        678  USELESS:         37
STLB USEFUL LOAD PREFETCHES:        678 PREFETCH ISSUED TO LOWER LEVEL:          0  ACCURACY: inf
STLB TIMELY PREFETCHES:        678 LATE PREFETCHES: 33 DROPPED PREFETCHES: 8428
STLB PREFETCHES SAME FILL-ORIGIN LEVEL: 0 DIFFERENT FILL-ORIGIN LEVEL: 0
STLB AVERAGE MISS LATENCY: 138.071 cycles
STLB RQ	ACCESS:   10020222	FORWARD:          0	MERGED:    7013290	TO_CACHE:    3006932

STLB Hit, L1D data hit: 0
STLB Hit, L2C data hit: 0
STLB Hit, LLC data hit: 0
STLB Hit, LLC data miss: 0
STLB STLB hints to L2: 0
L1D TOTAL     ACCESS:   49316123  HIT:   47434995  MISS:    1881128  HIT %:    96.1856  MISS %:    3.81443   MPKI: 9.40564
L1D LOAD      ACCESS:   24142615  HIT:   23847493  MISS:     295122  HIT %:    98.7776  MISS %:    1.22241   MPKI: 1.47561
L1D RFO       ACCESS:   16855912  HIT:   15632560  MISS:    1223352  HIT %:    92.7423  MISS %:     7.2577   MPKI: 6.11676
L1D PREFETCH  ACCESS:    8317596  HIT:    7954942  MISS:     362654  HIT %:    95.6399  MISS %:    4.36008   MPKI: 1.81327
L1D PREFETCH  REQUESTED:   22951801  ISSUED:   21409816  USEFUL:     328094  USELESS:      34568
L1D USEFUL LOAD PREFETCHES:     328094 PREFETCH ISSUED TO LOWER LEVEL:    1891155  ACCURACY: 17.3489
L1D TIMELY PREFETCHES:     328094 LATE PREFETCHES: 2889 DROPPED PREFETCHES: 14083
L1D PREFETCHES SAME FILL-ORIGIN LEVEL: 365550 DIFFERENT FILL-ORIGIN LEVEL: 1525605
L1D AVERAGE MISS LATENCY: 236.223 cycles
L1D RQ	ACCESS:   32951486	FORWARD:          0	MERGED:    8413744	TO_CACHE:   24182509
L1D WQ	ACCESS:   20828088	FORWARD:     355406	MERGED:     680682	TO_CACHE:   20147406
L1D PQ	ACCESS:   11526035	FORWARD:          0	MERGED:    1642081	TO_CACHE:    9883781

L1D UNIQUE REGIONS ACCESSED: 0
L1D REGIONS CONFLICTS: 0
L1D Cross Page Prefetch Requests: 4034228
L1D Same Page Prefetch Requests: 8528896
L1D ROI Sum of L1D PQ occupancy: 148960535
L1D PREFETCHES PUSHED FROM L2C: 0
L1I TOTAL     ACCESS:   36596587  HIT:   36514373  MISS:      82214  HIT %:    99.7754  MISS %:   0.224649   MPKI: 0.41107
L1I LOAD      ACCESS:   36596587  HIT:   36514373  MISS:      82214  HIT %:    99.7754  MISS %:   0.224649   MPKI: 0.41107
L1I PREFETCH  REQUESTED:          0  ISSUED:          0  USEFUL:          0  USELESS:          0
L1I USEFUL LOAD PREFETCHES:          0 PREFETCH ISSUED TO LOWER LEVEL:          0  ACCURACY: -nan
L1I TIMELY PREFETCHES:          0 LATE PREFETCHES: 0 DROPPED PREFETCHES: 0
L1I PREFETCHES SAME FILL-ORIGIN LEVEL: 0 DIFFERENT FILL-ORIGIN LEVEL: 0
L1I AVERAGE MISS LATENCY: 63.2714 cycles
L1I RQ	ACCESS:   55520534	FORWARD:          0	MERGED:   18891426	TO_CACHE:   36629108

BTB TOTAL     ACCESS:   20164737  HIT:   19783135  MISS:     381602  HIT %:    98.1076  MISS %:    1.89242   MPKI: 1.90801
BTB BRANCH_DIRECT_JUMP	ACCESS:    1577847  HIT:    1576582  MISS:       1265
BTB BRANCH_INDIRECT	ACCESS:      10107  HIT:       9279  MISS:        828
BTB BRANCH_CONDITIONAL	ACCESS:   16385851  HIT:   16377196  MISS:       8655
BTB BRANCH_DIRECT_CALL	ACCESS:    1095466  HIT:    1089615  MISS:       5851
BTB BRANCH_INDIRECT_CALL	ACCESS:          0  HIT:          0  MISS:          0
BTB BRANCH_RETURN	ACCESS:    1095466  HIT:     730463  MISS:     365003
BTB BRANCH_OTHER ACCESS:          0  HIT:          0  MISS:          0

L2C TOTAL     ACCESS:    4785742  HIT:    3628882  MISS:    1156860  HIT %:    75.8269  MISS %:    24.1731   MPKI: 5.7843
L2C LOAD      ACCESS:     374408  HIT:     289626  MISS:      84782  HIT %:    77.3557  MISS %:    22.6443   MPKI: 0.42391
L2C DATA LOAD MPKI: 0.30384
L2C INSTRUCTION LOAD MPKI: 0.12007
L2C RFO       ACCESS:    1223329  HIT:     252127  MISS:     971202  HIT %:    20.6099  MISS %:    79.3901   MPKI: 4.85601
L2C PREFETCH  ACCESS:    1853984  HIT:    1775773  MISS:      78211  HIT %:    95.7815  MISS %:    4.21854   MPKI: 0.391055
L2C DATA PREFETCH MPKI: 0.391055
L2C INSTRUCTION PREFETCH MPKI: 0
L2C WRITEBACK ACCESS:    1305414  HIT:    1286789  MISS:      18625  HIT %:    98.5732  MISS %:    1.42675   MPKI: 0.093125
L2C LOAD TRANSLATION ACCESS:      19069  HIT:      15494  MISS:       3575  HIT %:    81.2523  MISS %:    18.7477   MPKI: 0.017875
L2C TRANSLATION FROM L1D PREFETCHER ACCESS:       9538  HIT:       9073  MISS:        465  HIT %:    95.1248  MISS %:    4.87524   MPKI: 0.002325
L2C PREFETCH  REQUESTED:          0  ISSUED:          0  USEFUL:      27928  USELESS:      53998
L2C USEFUL LOAD PREFETCHES:      27928 PREFETCH ISSUED TO LOWER LEVEL:      83543  ACCURACY: 33.4295
L2C TIMELY PREFETCHES:      27928 LATE PREFETCHES: 5332 DROPPED PREFETCHES: 0
L2C PREFETCHES SAME FILL-ORIGIN LEVEL: 63216 DIFFERENT FILL-ORIGIN LEVEL: 0
L2C AVERAGE MISS LATENCY: 370.231 cycles
L2C RQ	ACCESS:    1626400	FORWARD:          0	MERGED:          0	TO_CACHE:    1626344
L2C WQ	ACCESS:    1305414	FORWARD:         73	MERGED:          0	TO_CACHE:    1305414
L2C PQ	ACCESS:    1889026	FORWARD:          0	MERGED:        359	TO_CACHE:    1888650

L2C Instructions Evicting Data 20860
L2C Translations Evicting Data 3750
L2C Data Evicting Data 1085946
L2C Instructions Evicting Instructions 2977
L2C Translations Evicting Instructions 283
L2C Data Evicting Instructions 20451
L2C Instructions Evicting Translations 177
L2C Translations Evicting Translations 7
L2C Data Evicting Translations 3784
L2C Dense regions hint from L2: 0
PSCL5 TOTAL     ACCESS:      27985  HIT:      27985  MISS:          0  HIT %:        100  MISS %:          0   MPKI: 0
PSCL5 LOAD TRANSLATION ACCESS:      18802  HIT:      18802  MISS:          0  HIT %:        100  MISS %:          0   MPKI: 0
PSCL5 TRANSLATION FROM L1D PREFETCHER ACCESS:       9183  HIT:       9183  MISS:          0  HIT %:        100  MISS %:          0   MPKI: 0
PSCL5 PREFETCH  REQUESTED:          0  ISSUED:          0  USEFUL:          0  USELESS:          0
PSCL5 USEFUL LOAD PREFETCHES:          0 PREFETCH ISSUED TO LOWER LEVEL:          0  ACCURACY: -nan
PSCL5 TIMELY PREFETCHES:          0 LATE PREFETCHES: 0 DROPPED PREFETCHES: 0
PSCL5 PREFETCHES SAME FILL-ORIGIN LEVEL: 0 DIFFERENT FILL-ORIGIN LEVEL: 0

PSCL4 TOTAL     ACCESS:      27985  HIT:      27985  MISS:          0  HIT %:        100  MISS %:          0   MPKI: 0
PSCL4 LOAD TRANSLATION ACCESS:      18802  HIT:      18802  MISS:          0  HIT %:        100  MISS %:          0   MPKI: 0
PSCL4 TRANSLATION FROM L1D PREFETCHER ACCESS:       9183  HIT:       9183  MISS:          0  HIT %:        100  MISS %:          0   MPKI: 0
PSCL4 PREFETCH  REQUESTED:          0  ISSUED:          0  USEFUL:          0  USELESS:          0
PSCL4 USEFUL LOAD PREFETCHES:          0 PREFETCH ISSUED TO LOWER LEVEL:          0  ACCURACY: -nan
PSCL4 TIMELY PREFETCHES:          0 LATE PREFETCHES: 0 DROPPED PREFETCHES: 0
PSCL4 PREFETCHES SAME FILL-ORIGIN LEVEL: 0 DIFFERENT FILL-ORIGIN LEVEL: 0

PSCL3 TOTAL     ACCESS:      27985  HIT:      27985  MISS:          0  HIT %:        100  MISS %:          0   MPKI: 0
PSCL3 LOAD TRANSLATION ACCESS:      18802  HIT:      18802  MISS:          0  HIT %:        100  MISS %:          0   MPKI: 0
PSCL3 TRANSLATION FROM L1D PREFETCHER ACCESS:       9183  HIT:       9183  MISS:          0  HIT %:        100  MISS %:          0   MPKI: 0
PSCL3 PREFETCH  REQUESTED:          0  ISSUED:          0  USEFUL:          0  USELESS:          0
PSCL3 USEFUL LOAD PREFETCHES:          0 PREFETCH ISSUED TO LOWER LEVEL:          0  ACCURACY: -nan
PSCL3 TIMELY PREFETCHES:          0 LATE PREFETCHES: 0 DROPPED PREFETCHES: 0
PSCL3 PREFETCHES SAME FILL-ORIGIN LEVEL: 0 DIFFERENT FILL-ORIGIN LEVEL: 0

PSCL2 TOTAL     ACCESS:      27632  HIT:      27256  MISS:        376  HIT %:    98.6393  MISS %:    1.36074   MPKI: 0.00188
PSCL2 LOAD TRANSLATION ACCESS:      18804  HIT:      18428  MISS:        376  HIT %:    98.0004  MISS %:    1.99957   MPKI: 0.00188
PSCL2 TRANSLATION FROM L1D PREFETCHER ACCESS:       8828  HIT:       8828  MISS:          0  HIT %:        100  MISS %:          0   MPKI: 0
PSCL2 PREFETCH  REQUESTED:          0  ISSUED:          0  USEFUL:          0  USELESS:          0
PSCL2 USEFUL LOAD PREFETCHES:          0 PREFETCH ISSUED TO LOWER LEVEL:          0  ACCURACY: -nan
PSCL2 TIMELY PREFETCHES:          0 LATE PREFETCHES: 0 DROPPED PREFETCHES: 0
PSCL2 PREFETCHES SAME FILL-ORIGIN LEVEL: 0 DIFFERENT FILL-ORIGIN LEVEL: 0

LLC TOTAL     ACCESS:    2125543  HIT:    1057086  MISS:    1068457  HIT %:    49.7325  MISS %:    50.2675   MPKI: 5.34228
LLC LOAD      ACCESS:      79457  HIT:      17836  MISS:      61621  HIT %:    22.4474  MISS %:    77.5526   MPKI: 0.308105
LLC RFO       ACCESS:     971195  HIT:      18981  MISS:     952214  HIT %:     1.9544  MISS %:    98.0456   MPKI: 4.76107
LLC PREFETCH  ACCESS:      83542  HIT:      55055  MISS:      28487  HIT %:     65.901  MISS %:     34.099   MPKI: 0.142435
LLC WRITEBACK ACCESS:     987309  HIT:     964812  MISS:      22497  HIT %:    97.7214  MISS %:    2.27862   MPKI: 0.112485
LLC LOAD TRANSLATION ACCESS:       3575  HIT:        313  MISS:       3262  HIT %:    8.75524  MISS %:    91.2448   MPKI: 0.01631
LLC TRANSLATION FROM L1D PREFETCHER ACCESS:        465  HIT:         89  MISS:        376  HIT %:    19.1398  MISS %:    80.8602   MPKI: 0.00188
LLC PREFETCH  REQUESTED:          0  ISSUED:          0  USEFUL:       1859  USELESS:      30316
LLC USEFUL LOAD PREFETCHES:       1859 PREFETCH ISSUED TO LOWER LEVEL:      28487  ACCURACY: 6.52578
LLC TIMELY PREFETCHES:       1859 LATE PREFETCHES: 0 DROPPED PREFETCHES: 0
LLC PREFETCHES SAME FILL-ORIGIN LEVEL: 0 DIFFERENT FILL-ORIGIN LEVEL: 0
LLC AVERAGE MISS LATENCY: 368.502 cycles
LLC RQ	ACCESS:    1054692	FORWARD:          0	MERGED:          0	TO_CACHE:    1054692
LLC WQ	ACCESS:     987309	FORWARD:          1	MERGED:          0	TO_CACHE:     987309
LLC PQ	ACCESS:      83543	FORWARD:          0	MERGED:          0	TO_CACHE:      83542

LLC Dense regions hint to LLC: 0

RAW hits: 2832933
Loads Generated: 35784419
Loads sent to L1D: 32951486
Stores Generated: 20828086
Stores sent to L1D: 20828088
Major fault: 0 Minor fault: 6978
Allocated PAGES: 6978

DRAM Statistics
 CHANNEL 0
 RQ ROW_BUFFER_HIT:     472317  ROW_BUFFER_MISS:     573635
 DBUS_CONGESTED:        264
 WQ ROW_BUFFER_HIT:     387992  ROW_BUFFER_MISS:     575262  FULL:       2933

 AVG_CONGESTED_CYCLE: 5
 All warmup complete: 2
Channel 0 Bank busy for read cycles: 0
Channel 0 Bank busy for write cycles: 0
Channel 0
Rank 0
0banks busy for read cycles: 253343359
0banks busy for write cycles: 12716
1banks busy for read cycles: 5633863
1banks busy for write cycles: 1762596
2banks busy for read cycles: 3468834
2banks busy for write cycles: 783318
3banks busy for read cycles: 1217682
3banks busy for write cycles: 496895
4banks busy for read cycles: 710768
4banks busy for write cycles: 388544
5banks busy for read cycles: 407006
5banks busy for write cycles: 320980
6banks busy for read cycles: 358121
6banks busy for write cycles: 310378
7banks busy for read cycles: 860991
7banks busy for write cycles: 1246450
8banks busy for read cycles: 10157202
8banks busy for write cycles: 14726541

CPU 0 Branch Prediction Accuracy: 98.7798% MPKI: 1.3982 Average ROB Occupancy at Mispredict: 42.4692
Branch types
NOT_BRANCH: 173303799 86.6519%
BRANCH_DIRECT_JUMP: 1577847 0.788923%
BRANCH_INDIRECT: 10107 0.0050535%
BRANCH_CONDITIONAL: 22916974 11.4585%
BRANCH_DIRECT_CALL: 1095466 0.547733%
BRANCH_INDIRECT_CALL: 0 0%
BRANCH_RETURN: 1095466 0.547733%
BRANCH_OTHER: 0 0%

DRAM PAGES: 1048576
Allocated PAGES: 6978
