
*** ChampSim Multicore Out-of-Order Simulator ***

Warmup Instructions: 50000000
Simulation Instructions: 200000000
Number of CPUs: 1
LLC sets: 2048
LLC ways: 16
Off-chip DRAM Size: 4096 MB Channels: 1 Width: 64-bit Data Rate: 6400 MT/s
argv[0]: ./ChampSim/Berti/bin/multiperspective_perceptron8kb-no-vberti-no-no-no-no-no-lru-lru-lru-srrip-drrip-lru-lru-lru-1core-no
argv[1]: -warmup_instructions
argv[2]: 50000000
argv[3]: -simulation_instructions
argv[4]: 200000000
argv[5]: -traces
argv[6]: traces/spec2k17_ten/621.wrf_s-575B.champsimtrace.xz
CPU 0 runs traces/spec2k17_ten/621.wrf_s-575B.champsimtrace.xz
.xz
CPU 0 Multiperspective perceptron branch predictor
BTB has LRU replacement policy
ITLB has LRU replacement policy
DTLB has LRU replacement policy
STLB has LRU replacement policy
L1I has LRU replacement policy
History Sets: 8
History Ways: 16
BERTI Size: 16
BERTI Stride Size: 16
L1D has LRU replacement policy
Initialize SRRIP state for L2C
Initialize DRRIP state for LLC
Heartbeat CPU 0 instructions: 10000000 cycles: 3626530 heartbeat IPC: 2.75746 cumulative IPC: 2.75746 (Simulation time: 0 hr 2 min 55 sec) 
Heartbeat CPU 0 instructions: 20000002 cycles: 7255596 heartbeat IPC: 2.75553 cumulative IPC: 2.75649 (Simulation time: 0 hr 4 min 36 sec) 
Heartbeat CPU 0 instructions: 30000000 cycles: 10888711 heartbeat IPC: 2.75246 cumulative IPC: 2.75515 (Simulation time: 0 hr 6 min 57 sec) 
Heartbeat CPU 0 instructions: 40000002 cycles: 14522715 heartbeat IPC: 2.75179 cumulative IPC: 2.75431 (Simulation time: 0 hr 15 min 42 sec) 
Heartbeat CPU 0 instructions: 50000002 cycles: 18156203 heartbeat IPC: 2.75218 cumulative IPC: 2.75388 (Simulation time: 0 hr 20 min 21 sec) 

Warmup complete CPU 0 instructions: 50000002 cycles: 18156203 (Simulation time: 0 hr 20 min 21 sec) 

Heartbeat CPU 0 instructions: 60000001 cycles: 35535148 heartbeat IPC: 0.575409 cumulative IPC: 0.575409 (Simulation time: 0 hr 26 min 20 sec) 
Heartbeat CPU 0 instructions: 70000000 cycles: 52842467 heartbeat IPC: 0.57779 cumulative IPC: 0.576597 (Simulation time: 0 hr 31 min 11 sec) 
Heartbeat CPU 0 instructions: 80000002 cycles: 70043869 heartbeat IPC: 0.581348 cumulative IPC: 0.578172 (Simulation time: 0 hr 36 min 38 sec) 
Heartbeat CPU 0 instructions: 90000000 cycles: 87319935 heartbeat IPC: 0.578835 cumulative IPC: 0.578338 (Simulation time: 0 hr 42 min 20 sec) 
Heartbeat CPU 0 instructions: 100000001 cycles: 104554119 heartbeat IPC: 0.580242 cumulative IPC: 0.578718 (Simulation time: 0 hr 49 min 26 sec) 
Heartbeat CPU 0 instructions: 110000000 cycles: 121695947 heartbeat IPC: 0.583368 cumulative IPC: 0.579488 (Simulation time: 0 hr 56 min 57 sec) 
Heartbeat CPU 0 instructions: 120000001 cycles: 138611916 heartbeat IPC: 0.591157 cumulative IPC: 0.581126 (Simulation time: 1 hr 3 min 50 sec) 
Heartbeat CPU 0 instructions: 130000000 cycles: 155550372 heartbeat IPC: 0.590373 cumulative IPC: 0.582266 (Simulation time: 1 hr 11 min 11 sec) 
Heartbeat CPU 0 instructions: 140000001 cycles: 172457834 heartbeat IPC: 0.591455 cumulative IPC: 0.583273 (Simulation time: 1 hr 17 min 49 sec) 
Heartbeat CPU 0 instructions: 150000000 cycles: 189117083 heartbeat IPC: 0.600267 cumulative IPC: 0.584929 (Simulation time: 1 hr 21 min 53 sec) 
Heartbeat CPU 0 instructions: 160000002 cycles: 205825457 heartbeat IPC: 0.598502 cumulative IPC: 0.586138 (Simulation time: 1 hr 29 min 8 sec) 
Heartbeat CPU 0 instructions: 170000001 cycles: 222488814 heartbeat IPC: 0.600119 cumulative IPC: 0.587278 (Simulation time: 1 hr 33 min 9 sec) 
Heartbeat CPU 0 instructions: 180000000 cycles: 239155278 heartbeat IPC: 0.600007 cumulative IPC: 0.588238 (Simulation time: 1 hr 35 min 52 sec) 
Heartbeat CPU 0 instructions: 190000003 cycles: 255847649 heartbeat IPC: 0.599076 cumulative IPC: 0.588999 (Simulation time: 1 hr 39 min 27 sec) 
Heartbeat CPU 0 instructions: 200000000 cycles: 272495093 heartbeat IPC: 0.600693 cumulative IPC: 0.589764 (Simulation time: 1 hr 43 min 54 sec) 
Heartbeat CPU 0 instructions: 210000001 cycles: 288971166 heartbeat IPC: 0.606941 cumulative IPC: 0.590809 (Simulation time: 1 hr 49 min 49 sec) 
Heartbeat CPU 0 instructions: 220000000 cycles: 305355689 heartbeat IPC: 0.610332 cumulative IPC: 0.591923 (Simulation time: 1 hr 54 min 48 sec) 
Heartbeat CPU 0 instructions: 230000001 cycles: 321887777 heartbeat IPC: 0.604884 cumulative IPC: 0.592629 (Simulation time: 1 hr 58 min 59 sec) 
Heartbeat CPU 0 instructions: 240000001 cycles: 338485949 heartbeat IPC: 0.602476 cumulative IPC: 0.593139 (Simulation time: 2 hr 2 min 34 sec) 
Heartbeat CPU 0 instructions: 250000002 cycles: 355133822 heartbeat IPC: 0.600677 cumulative IPC: 0.593511 (Simulation time: 2 hr 6 min 52 sec) 
Finished CPU 0 instructions: 200000000 cycles: 336977619 cumulative IPC: 0.593511 (Simulation time: 2 hr 6 min 52 sec) 

ChampSim completed all CPUs

Region of Interest Statistics

CPU 0 cumulative IPC: 0.593511 instructions: 200000000 cycles: 336977619
ITLB TOTAL     ACCESS:   32184284  HIT:   32184284  MISS:          0  HIT %:        100  MISS %:          0   MPKI: 0
ITLB LOAD TRANSLATION ACCESS:   32184284  HIT:   32184284  MISS:          0  HIT %:        100  MISS %:          0   MPKI: 0
ITLB PREFETCH  REQUESTED:          0  ISSUED:          0  USEFUL:          0  USELESS:          0
ITLB USEFUL LOAD PREFETCHES:          0 PREFETCH ISSUED TO LOWER LEVEL:          0  ACCURACY: -nan
ITLB TIMELY PREFETCHES:          0 LATE PREFETCHES: 0 DROPPED PREFETCHES: 0
ITLB PREFETCHES SAME FILL-ORIGIN LEVEL: 0 DIFFERENT FILL-ORIGIN LEVEL: 0
ITLB AVERAGE MISS LATENCY: -nan cycles
ITLB RQ	ACCESS:   41106697	FORWARD:          0	MERGED:    8922414	TO_CACHE:   32184283

DTLB TOTAL     ACCESS:   31183659  HIT:   31171422  MISS:      12237  HIT %:    99.9608  MISS %:  0.0392417   MPKI: 0.061185
DTLB LOAD TRANSLATION ACCESS:   31183659  HIT:   31171422  MISS:      12237  HIT %:    99.9608  MISS %:  0.0392417   MPKI: 0.061185
DTLB PREFETCH  REQUESTED:          0  ISSUED:          0  USEFUL:          0  USELESS:          0
DTLB USEFUL LOAD PREFETCHES:          0 PREFETCH ISSUED TO LOWER LEVEL:          0  ACCURACY: -nan
DTLB TIMELY PREFETCHES:          0 LATE PREFETCHES: 0 DROPPED PREFETCHES: 0
DTLB PREFETCHES SAME FILL-ORIGIN LEVEL: 0 DIFFERENT FILL-ORIGIN LEVEL: 0
DTLB AVERAGE MISS LATENCY: 11.8348 cycles
DTLB RQ	ACCESS:   33851493	FORWARD:          0	MERGED:    2667333	TO_CACHE:   31184160

STLB TOTAL     ACCESS:      91027  HIT:      90804  MISS:        223  HIT %:     99.755  MISS %:   0.244982   MPKI: 0.001115
STLB LOAD TRANSLATION ACCESS:      12237  HIT:      12014  MISS:        223  HIT %:    98.1777  MISS %:    1.82234   MPKI: 0.001115
STLB TRANSLATION FROM L1D PREFETCHER ACCESS:      78790  HIT:      78790  MISS:          0  HIT %:        100  MISS %:          0   MPKI: 0
STLB PREFETCH  REQUESTED:          0  ISSUED:          0  USEFUL:          0  USELESS:          0
STLB USEFUL LOAD PREFETCHES:          0 PREFETCH ISSUED TO LOWER LEVEL:          0  ACCURACY: -nan
STLB TIMELY PREFETCHES:          0 LATE PREFETCHES: 3 DROPPED PREFETCHES: 8726
STLB PREFETCHES SAME FILL-ORIGIN LEVEL: 0 DIFFERENT FILL-ORIGIN LEVEL: 0
STLB AVERAGE MISS LATENCY: 154.112 cycles
STLB RQ	ACCESS:     189828	FORWARD:          0	MERGED:      90063	TO_CACHE:      99765

STLB Hit, L1D data hit: 0
STLB Hit, L2C data hit: 0
STLB Hit, LLC data hit: 0
STLB Hit, LLC data miss: 0
STLB STLB hints to L2: 0
L1D TOTAL     ACCESS:   33891000  HIT:   33885366  MISS:       5634  HIT %:    99.9834  MISS %:  0.0166239   MPKI: 0.02817
L1D LOAD      ACCESS:   26387522  HIT:   26385947  MISS:       1575  HIT %:     99.994  MISS %: 0.00596873   MPKI: 0.007875
L1D RFO       ACCESS:    7459700  HIT:    7456326  MISS:       3374  HIT %:    99.9548  MISS %:  0.0452297   MPKI: 0.01687
L1D PREFETCH  ACCESS:      43778  HIT:      43093  MISS:        685  HIT %:    98.4353  MISS %:    1.56471   MPKI: 0.003425
L1D PREFETCH  REQUESTED:     355460  ISSUED:     355460  USEFUL:        613  USELESS:         81
L1D USEFUL LOAD PREFETCHES:        613 PREFETCH ISSUED TO LOWER LEVEL:     122157  ACCURACY: 0.501813
L1D TIMELY PREFETCHES:        613 LATE PREFETCHES: 53 DROPPED PREFETCHES: 12113
L1D PREFETCHES SAME FILL-ORIGIN LEVEL: 738 DIFFERENT FILL-ORIGIN LEVEL: 121419
L1D AVERAGE MISS LATENCY: 166.267 cycles
L1D RQ	ACCESS:   33065028	FORWARD:          0	MERGED:    6410777	TO_CACHE:   26388433
L1D WQ	ACCESS:    7464969	FORWARD:     265820	MERGED:       1909	TO_CACHE:    7463060
L1D PQ	ACCESS:     177869	FORWARD:          0	MERGED:        276	TO_CACHE:     177591

L1D UNIQUE REGIONS ACCESSED: 0
L1D REGIONS CONFLICTS: 0
L1D Cross Page Prefetch Requests: 12216
L1D Same Page Prefetch Requests: 221298
L1D ROI Sum of L1D PQ occupancy: 2586809
L1D PREFETCHES PUSHED FROM L2C: 0
L1I TOTAL     ACCESS:   41106037  HIT:   41104565  MISS:       1472  HIT %:    99.9964  MISS %: 0.00358098   MPKI: 0.00736
L1I LOAD      ACCESS:   41106037  HIT:   41104565  MISS:       1472  HIT %:    99.9964  MISS %: 0.00358098   MPKI: 0.00736
L1I PREFETCH  REQUESTED:          0  ISSUED:          0  USEFUL:          0  USELESS:          0
L1I USEFUL LOAD PREFETCHES:          0 PREFETCH ISSUED TO LOWER LEVEL:          0  ACCURACY: -nan
L1I TIMELY PREFETCHES:          0 LATE PREFETCHES: 0 DROPPED PREFETCHES: 0
L1I PREFETCHES SAME FILL-ORIGIN LEVEL: 0 DIFFERENT FILL-ORIGIN LEVEL: 0
L1I AVERAGE MISS LATENCY: 14.2249 cycles
L1I RQ	ACCESS:   56990994	FORWARD:          0	MERGED:   15884297	TO_CACHE:   41106697

BTB TOTAL     ACCESS:   16051402  HIT:   14487433  MISS:    1563969  HIT %:    90.2565  MISS %:     9.7435   MPKI: 7.81984
BTB BRANCH_DIRECT_JUMP	ACCESS:    1796498  HIT:    1796468  MISS:         30
BTB BRANCH_INDIRECT	ACCESS:          0  HIT:          0  MISS:          0
BTB BRANCH_CONDITIONAL	ACCESS:    9861101  HIT:    9860989  MISS:        112
BTB BRANCH_DIRECT_CALL	ACCESS:    2196902  HIT:    2196697  MISS:        205
BTB BRANCH_INDIRECT_CALL	ACCESS:          0  HIT:          0  MISS:          0
BTB BRANCH_RETURN	ACCESS:    2196901  HIT:     633279  MISS:    1563622
BTB BRANCH_OTHER ACCESS:          0  HIT:          0  MISS:          0

L2C TOTAL     ACCESS:     140979  HIT:     135147  MISS:       5832  HIT %:    95.8632  MISS %:    4.13679   MPKI: 0.02916
L2C LOAD      ACCESS:       2994  HIT:       1774  MISS:       1220  HIT %:    59.2518  MISS %:    40.7482   MPKI: 0.0061
L2C DATA LOAD MPKI: 0.006065
L2C INSTRUCTION LOAD MPKI: 3.5e-05
L2C RFO       ACCESS:       3374  HIT:         80  MISS:       3294  HIT %:    2.37107  MISS %:    97.6289   MPKI: 0.01647
L2C PREFETCH  ACCESS:     121643  HIT:     120378  MISS:       1265  HIT %:    98.9601  MISS %:    1.03993   MPKI: 0.006325
L2C DATA PREFETCH MPKI: 0.006325
L2C INSTRUCTION PREFETCH MPKI: 0
L2C WRITEBACK ACCESS:       4016  HIT:       4012  MISS:          4  HIT %:    99.9004  MISS %:  0.0996016   MPKI: 2e-05
L2C LOAD TRANSLATION ACCESS:        223  HIT:        187  MISS:         36  HIT %:    83.8565  MISS %:    16.1435   MPKI: 0.00018
L2C TRANSLATION FROM L1D PREFETCHER ACCESS:       8729  HIT:       8716  MISS:         13  HIT %:    99.8511  MISS %:   0.148929   MPKI: 6.5e-05
L2C PREFETCH  REQUESTED:          0  ISSUED:          0  USEFUL:        296  USELESS:         58
L2C USEFUL LOAD PREFETCHES:        296 PREFETCH ISSUED TO LOWER LEVEL:       1380  ACCURACY: 21.4493
L2C TIMELY PREFETCHES:        296 LATE PREFETCHES: 115 DROPPED PREFETCHES: 0
L2C PREFETCHES SAME FILL-ORIGIN LEVEL: 1235 DIFFERENT FILL-ORIGIN LEVEL: 0
L2C AVERAGE MISS LATENCY: 181.869 cycles
L2C RQ	ACCESS:      15320	FORWARD:          0	MERGED:          0	TO_CACHE:      15320
L2C WQ	ACCESS:       4016	FORWARD:          0	MERGED:          0	TO_CACHE:       4016
L2C PQ	ACCESS:     122157	FORWARD:          0	MERGED:          0	TO_CACHE:     122157

L2C Instructions Evicting Data 2
L2C Translations Evicting Data 5
L2C Data Evicting Data 380
L2C Instructions Evicting Instructions 4
L2C Translations Evicting Instructions 3
L2C Data Evicting Instructions 177
L2C Instructions Evicting Translations 1
L2C Translations Evicting Translations 0
L2C Data Evicting Translations 9
L2C Dense regions hint from L2: 0
PSCL5 TOTAL     ACCESS:       8952  HIT:       8952  MISS:          0  HIT %:        100  MISS %:          0   MPKI: 0
PSCL5 LOAD TRANSLATION ACCESS:        223  HIT:        223  MISS:          0  HIT %:        100  MISS %:          0   MPKI: 0
PSCL5 TRANSLATION FROM L1D PREFETCHER ACCESS:       8729  HIT:       8729  MISS:          0  HIT %:        100  MISS %:          0   MPKI: 0
PSCL5 PREFETCH  REQUESTED:          0  ISSUED:          0  USEFUL:          0  USELESS:          0
PSCL5 USEFUL LOAD PREFETCHES:          0 PREFETCH ISSUED TO LOWER LEVEL:          0  ACCURACY: -nan
PSCL5 TIMELY PREFETCHES:          0 LATE PREFETCHES: 0 DROPPED PREFETCHES: 0
PSCL5 PREFETCHES SAME FILL-ORIGIN LEVEL: 0 DIFFERENT FILL-ORIGIN LEVEL: 0

PSCL4 TOTAL     ACCESS:       8952  HIT:       8952  MISS:          0  HIT %:        100  MISS %:          0   MPKI: 0
PSCL4 LOAD TRANSLATION ACCESS:        223  HIT:        223  MISS:          0  HIT %:        100  MISS %:          0   MPKI: 0
PSCL4 TRANSLATION FROM L1D PREFETCHER ACCESS:       8729  HIT:       8729  MISS:          0  HIT %:        100  MISS %:          0   MPKI: 0
PSCL4 PREFETCH  REQUESTED:          0  ISSUED:          0  USEFUL:          0  USELESS:          0
PSCL4 USEFUL LOAD PREFETCHES:          0 PREFETCH ISSUED TO LOWER LEVEL:          0  ACCURACY: -nan
PSCL4 TIMELY PREFETCHES:          0 LATE PREFETCHES: 0 DROPPED PREFETCHES: 0
PSCL4 PREFETCHES SAME FILL-ORIGIN LEVEL: 0 DIFFERENT FILL-ORIGIN LEVEL: 0

PSCL3 TOTAL     ACCESS:       8952  HIT:       8952  MISS:          0  HIT %:        100  MISS %:          0   MPKI: 0
PSCL3 LOAD TRANSLATION ACCESS:        223  HIT:        223  MISS:          0  HIT %:        100  MISS %:          0   MPKI: 0
PSCL3 TRANSLATION FROM L1D PREFETCHER ACCESS:       8729  HIT:       8729  MISS:          0  HIT %:        100  MISS %:          0   MPKI: 0
PSCL3 PREFETCH  REQUESTED:          0  ISSUED:          0  USEFUL:          0  USELESS:          0
PSCL3 USEFUL LOAD PREFETCHES:          0 PREFETCH ISSUED TO LOWER LEVEL:          0  ACCURACY: -nan
PSCL3 TIMELY PREFETCHES:          0 LATE PREFETCHES: 0 DROPPED PREFETCHES: 0
PSCL3 PREFETCHES SAME FILL-ORIGIN LEVEL: 0 DIFFERENT FILL-ORIGIN LEVEL: 0

PSCL2 TOTAL     ACCESS:       8952  HIT:       8951  MISS:          1  HIT %:    99.9888  MISS %:  0.0111707   MPKI: 5e-06
PSCL2 LOAD TRANSLATION ACCESS:        223  HIT:        222  MISS:          1  HIT %:    99.5516  MISS %:    0.44843   MPKI: 5e-06
PSCL2 TRANSLATION FROM L1D PREFETCHER ACCESS:       8729  HIT:       8729  MISS:          0  HIT %:        100  MISS %:          0   MPKI: 0
PSCL2 PREFETCH  REQUESTED:          0  ISSUED:          0  USEFUL:          0  USELESS:          0
PSCL2 USEFUL LOAD PREFETCHES:          0 PREFETCH ISSUED TO LOWER LEVEL:          0  ACCURACY: -nan
PSCL2 TIMELY PREFETCHES:          0 LATE PREFETCHES: 0 DROPPED PREFETCHES: 0
PSCL2 PREFETCHES SAME FILL-ORIGIN LEVEL: 0 DIFFERENT FILL-ORIGIN LEVEL: 0

LLC TOTAL     ACCESS:       5841  HIT:         22  MISS:       5819  HIT %:   0.376648  MISS %:    99.6234   MPKI: 0.029095
LLC LOAD      ACCESS:       1105  HIT:          9  MISS:       1096  HIT %:    0.81448  MISS %:    99.1855   MPKI: 0.00548
LLC RFO       ACCESS:       3294  HIT:          0  MISS:       3294  HIT %:          0  MISS %:        100   MPKI: 0.01647
LLC PREFETCH  ACCESS:       1380  HIT:          0  MISS:       1380  HIT %:          0  MISS %:        100   MPKI: 0.0069
LLC WRITEBACK ACCESS:         13  HIT:         13  MISS:          0  HIT %:        100  MISS %:          0   MPKI: 0
LLC LOAD TRANSLATION ACCESS:         36  HIT:          0  MISS:         36  HIT %:          0  MISS %:        100   MPKI: 0.00018
LLC TRANSLATION FROM L1D PREFETCHER ACCESS:         13  HIT:          0  MISS:         13  HIT %:          0  MISS %:        100   MPKI: 6.5e-05
LLC PREFETCH  REQUESTED:          0  ISSUED:          0  USEFUL:          0  USELESS:         15
LLC USEFUL LOAD PREFETCHES:          0 PREFETCH ISSUED TO LOWER LEVEL:       1380  ACCURACY: 0
LLC TIMELY PREFETCHES:          0 LATE PREFETCHES: 0 DROPPED PREFETCHES: 0
LLC PREFETCHES SAME FILL-ORIGIN LEVEL: 0 DIFFERENT FILL-ORIGIN LEVEL: 0
LLC AVERAGE MISS LATENCY: 151.179 cycles
LLC RQ	ACCESS:       4448	FORWARD:          0	MERGED:          0	TO_CACHE:       4448
LLC WQ	ACCESS:         13	FORWARD:          0	MERGED:          0	TO_CACHE:         13
LLC PQ	ACCESS:       1380	FORWARD:          0	MERGED:          0	TO_CACHE:       1380

LLC Dense regions hint to LLC: 0

RAW hits: 467706
Loads Generated: 33532734
Loads sent to L1D: 33065028
Stores Generated: 7464969
Stores sent to L1D: 7464969
Major fault: 0 Minor fault: 395
Allocated PAGES: 395

DRAM Statistics
 CHANNEL 0
 RQ ROW_BUFFER_HIT:       1359  ROW_BUFFER_MISS:       4460
 DBUS_CONGESTED:          0
 WQ ROW_BUFFER_HIT:          0  ROW_BUFFER_MISS:          0  FULL:          0

 AVG_CONGESTED_CYCLE: -
 All warmup complete: 2
Channel 0 Bank busy for read cycles: 0
Channel 0 Bank busy for write cycles: 0
Channel 0
Rank 0
0banks busy for read cycles: 336529545
0banks busy for write cycles: 0
1banks busy for read cycles: 300243
1banks busy for write cycles: 0
2banks busy for read cycles: 87126
2banks busy for write cycles: 0
3banks busy for read cycles: 27252
3banks busy for write cycles: 0
4banks busy for read cycles: 9103
4banks busy for write cycles: 0
5banks busy for read cycles: 11463
5banks busy for write cycles: 0
6banks busy for read cycles: 6571
6banks busy for write cycles: 0
7banks busy for read cycles: 2990
7banks busy for write cycles: 0
8banks busy for read cycles: 3327
8banks busy for write cycles: 0

CPU 0 Branch Prediction Accuracy: 99.4374% MPKI: 0.57996 Average ROB Occupancy at Mispredict: 59.4896
Branch types
NOT_BRANCH: 173193955 86.597%
BRANCH_DIRECT_JUMP: 1796498 0.898249%
BRANCH_INDIRECT: 0 0%
BRANCH_CONDITIONAL: 20615493 10.3077%
BRANCH_DIRECT_CALL: 2196902 1.09845%
BRANCH_INDIRECT_CALL: 0 0%
BRANCH_RETURN: 2196901 1.09845%
BRANCH_OTHER: 0 0%

DRAM PAGES: 1048576
Allocated PAGES: 395
