
*** ChampSim Multicore Out-of-Order Simulator ***

Warmup Instructions: 50000000
Simulation Instructions: 200000000
Number of CPUs: 1
LLC sets: 2048
LLC ways: 16
Off-chip DRAM Size: 4096 MB Channels: 1 Width: 64-bit Data Rate: 6400 MT/s
argv[0]: ./ChampSim/Berti/bin/multiperspective_perceptron8kb-no-vberti-no-no-no-no-no-lru-lru-lru-srrip-drrip-lru-lru-lru-1core-no
argv[1]: -warmup_instructions
argv[2]: 50000000
argv[3]: -simulation_instructions
argv[4]: 200000000
argv[5]: -traces
argv[6]: traces/spec2k17_ten/621.wrf_s-8100B.champsimtrace.xz
CPU 0 runs traces/spec2k17_ten/621.wrf_s-8100B.champsimtrace.xz
.xz
CPU 0 Multiperspective perceptron branch predictor
BTB has LRU replacement policy
ITLB has LRU replacement policy
DTLB has LRU replacement policy
STLB has LRU replacement policy
L1I has LRU replacement policy
History Sets: 8
History Ways: 16
BERTI Size: 16
BERTI Stride Size: 16
L1D has LRU replacement policy
Initialize SRRIP state for L2C
Initialize DRRIP state for LLC
Heartbeat CPU 0 instructions: 10000000 cycles: 3314815 heartbeat IPC: 3.01676 cumulative IPC: 3.01676 (Simulation time: 0 hr 10 min 15 sec) 
Heartbeat CPU 0 instructions: 20000001 cycles: 6602672 heartbeat IPC: 3.0415 cumulative IPC: 3.02908 (Simulation time: 0 hr 19 min 28 sec) 
Heartbeat CPU 0 instructions: 30000003 cycles: 9950189 heartbeat IPC: 2.98729 cumulative IPC: 3.01502 (Simulation time: 0 hr 24 min 41 sec) 
Heartbeat CPU 0 instructions: 40000001 cycles: 13226067 heartbeat IPC: 3.05262 cumulative IPC: 3.02433 (Simulation time: 0 hr 29 min 47 sec) 
Heartbeat CPU 0 instructions: 50000000 cycles: 16552900 heartbeat IPC: 3.00586 cumulative IPC: 3.02062 (Simulation time: 0 hr 35 min 29 sec) 

Warmup complete CPU 0 instructions: 50000004 cycles: 16552901 (Simulation time: 0 hr 35 min 29 sec) 

Heartbeat CPU 0 instructions: 60000000 cycles: 32185924 heartbeat IPC: 0.639672 cumulative IPC: 0.639671 (Simulation time: 0 hr 42 min 42 sec) 
Heartbeat CPU 0 instructions: 70000002 cycles: 48287102 heartbeat IPC: 0.621073 cumulative IPC: 0.630235 (Simulation time: 0 hr 51 min 16 sec) 
Heartbeat CPU 0 instructions: 80000001 cycles: 64074437 heartbeat IPC: 0.633419 cumulative IPC: 0.631293 (Simulation time: 0 hr 58 min 57 sec) 
Heartbeat CPU 0 instructions: 90000002 cycles: 80182969 heartbeat IPC: 0.620789 cumulative IPC: 0.628634 (Simulation time: 1 hr 8 min 27 sec) 
Heartbeat CPU 0 instructions: 100000001 cycles: 96103011 heartbeat IPC: 0.628139 cumulative IPC: 0.628535 (Simulation time: 1 hr 14 min 32 sec) 
Heartbeat CPU 0 instructions: 110000000 cycles: 112422482 heartbeat IPC: 0.612765 cumulative IPC: 0.62585 (Simulation time: 1 hr 20 min 55 sec) 
Heartbeat CPU 0 instructions: 120000000 cycles: 128087469 heartbeat IPC: 0.638366 cumulative IPC: 0.627608 (Simulation time: 1 hr 29 min 57 sec) 
Heartbeat CPU 0 instructions: 130000000 cycles: 144736592 heartbeat IPC: 0.600632 cumulative IPC: 0.624104 (Simulation time: 1 hr 35 min 26 sec) 
Heartbeat CPU 0 instructions: 140000000 cycles: 160732726 heartbeat IPC: 0.625151 cumulative IPC: 0.62422 (Simulation time: 1 hr 41 min 37 sec) 
Heartbeat CPU 0 instructions: 150000003 cycles: 176893315 heartbeat IPC: 0.618789 cumulative IPC: 0.623673 (Simulation time: 1 hr 48 min 21 sec) 
Heartbeat CPU 0 instructions: 160000000 cycles: 193248225 heartbeat IPC: 0.611437 cumulative IPC: 0.62254 (Simulation time: 1 hr 54 min 38 sec) 
Heartbeat CPU 0 instructions: 170000000 cycles: 209328886 heartbeat IPC: 0.621865 cumulative IPC: 0.622484 (Simulation time: 2 hr 1 min 11 sec) 
Heartbeat CPU 0 instructions: 180000003 cycles: 226050492 heartbeat IPC: 0.598029 cumulative IPC: 0.620532 (Simulation time: 2 hr 6 min 51 sec) 
Heartbeat CPU 0 instructions: 190000002 cycles: 241967678 heartbeat IPC: 0.628252 cumulative IPC: 0.621077 (Simulation time: 2 hr 13 min 1 sec) 
Heartbeat CPU 0 instructions: 200000000 cycles: 258397442 heartbeat IPC: 0.608651 cumulative IPC: 0.620233 (Simulation time: 2 hr 18 min 28 sec) 
Heartbeat CPU 0 instructions: 210000000 cycles: 274594650 heartbeat IPC: 0.61739 cumulative IPC: 0.620055 (Simulation time: 2 hr 28 min 8 sec) 
Heartbeat CPU 0 instructions: 220000000 cycles: 290851457 heartbeat IPC: 0.615127 cumulative IPC: 0.619763 (Simulation time: 2 hr 33 min 47 sec) 
Heartbeat CPU 0 instructions: 230000003 cycles: 307102424 heartbeat IPC: 0.615348 cumulative IPC: 0.619516 (Simulation time: 2 hr 39 min 42 sec) 
Heartbeat CPU 0 instructions: 240000003 cycles: 323208867 heartbeat IPC: 0.62087 cumulative IPC: 0.619587 (Simulation time: 2 hr 47 min 46 sec) 
Heartbeat CPU 0 instructions: 250000000 cycles: 339513426 heartbeat IPC: 0.613325 cumulative IPC: 0.619271 (Simulation time: 2 hr 54 min 46 sec) 
Finished CPU 0 instructions: 200000000 cycles: 322960531 cumulative IPC: 0.619271 (Simulation time: 2 hr 54 min 46 sec) 

ChampSim completed all CPUs

Region of Interest Statistics

CPU 0 cumulative IPC: 0.619271 instructions: 200000000 cycles: 322960531
ITLB TOTAL     ACCESS:   31672586  HIT:   31672586  MISS:          0  HIT %:        100  MISS %:          0   MPKI: 0
ITLB LOAD TRANSLATION ACCESS:   31672586  HIT:   31672586  MISS:          0  HIT %:        100  MISS %:          0   MPKI: 0
ITLB PREFETCH  REQUESTED:          0  ISSUED:          0  USEFUL:          0  USELESS:          0
ITLB USEFUL LOAD PREFETCHES:          0 PREFETCH ISSUED TO LOWER LEVEL:          0  ACCURACY: -nan
ITLB TIMELY PREFETCHES:          0 LATE PREFETCHES: 0 DROPPED PREFETCHES: 0
ITLB PREFETCHES SAME FILL-ORIGIN LEVEL: 0 DIFFERENT FILL-ORIGIN LEVEL: 0
ITLB AVERAGE MISS LATENCY: -nan cycles
ITLB RQ	ACCESS:   38621642	FORWARD:          0	MERGED:    6949057	TO_CACHE:   31672585

DTLB TOTAL     ACCESS:   43931666  HIT:   43879094  MISS:      52572  HIT %:    99.8803  MISS %:   0.119668   MPKI: 0.26286
DTLB LOAD TRANSLATION ACCESS:   43931666  HIT:   43879094  MISS:      52572  HIT %:    99.8803  MISS %:   0.119668   MPKI: 0.26286
DTLB PREFETCH  REQUESTED:          0  ISSUED:          0  USEFUL:          0  USELESS:          0
DTLB USEFUL LOAD PREFETCHES:          0 PREFETCH ISSUED TO LOWER LEVEL:          0  ACCURACY: -nan
DTLB TIMELY PREFETCHES:          0 LATE PREFETCHES: 0 DROPPED PREFETCHES: 0
DTLB PREFETCHES SAME FILL-ORIGIN LEVEL: 0 DIFFERENT FILL-ORIGIN LEVEL: 0
DTLB AVERAGE MISS LATENCY: 10.4446 cycles
DTLB RQ	ACCESS:   50487891	FORWARD:          0	MERGED:    6541471	TO_CACHE:   43946420

STLB TOTAL     ACCESS:    5628643  HIT:    5627985  MISS:        658  HIT %:    99.9883  MISS %:  0.0116902   MPKI: 0.00329
STLB LOAD TRANSLATION ACCESS:      52572  HIT:      51914  MISS:        658  HIT %:    98.7484  MISS %:    1.25162   MPKI: 0.00329
STLB TRANSLATION FROM L1D PREFETCHER ACCESS:    5576071  HIT:    5576071  MISS:          0  HIT %:        100  MISS %:          0   MPKI: 0
STLB PREFETCH  REQUESTED:          0  ISSUED:          0  USEFUL:          0  USELESS:          0
STLB USEFUL LOAD PREFETCHES:          0 PREFETCH ISSUED TO LOWER LEVEL:          0  ACCURACY: -nan
STLB TIMELY PREFETCHES:          0 LATE PREFETCHES: 89 DROPPED PREFETCHES: 197371
STLB PREFETCHES SAME FILL-ORIGIN LEVEL: 0 DIFFERENT FILL-ORIGIN LEVEL: 0
STLB AVERAGE MISS LATENCY: 123.277 cycles
STLB RQ	ACCESS:   26477682	FORWARD:          0	MERGED:   20640261	TO_CACHE:    5837421

STLB Hit, L1D data hit: 0
STLB Hit, L2C data hit: 0
STLB Hit, LLC data hit: 0
STLB Hit, LLC data miss: 0
STLB STLB hints to L2: 0
L1D TOTAL     ACCESS:   69104535  HIT:   68240258  MISS:     864277  HIT %:    98.7493  MISS %:    1.25068   MPKI: 4.32139
L1D LOAD      ACCESS:   34967770  HIT:   34771667  MISS:     196103  HIT %:    99.4392  MISS %:   0.560811   MPKI: 0.980515
L1D RFO       ACCESS:   15166709  HIT:   14837062  MISS:     329647  HIT %:    97.8265  MISS %:    2.17349   MPKI: 1.64823
L1D PREFETCH  ACCESS:   18970056  HIT:   18631529  MISS:     338527  HIT %:    98.2155  MISS %:    1.78453   MPKI: 1.69263
L1D PREFETCH  REQUESTED:   62573191  ISSUED:   53522883  USEFUL:     301817  USELESS:      36769
L1D USEFUL LOAD PREFETCHES:     301817 PREFETCH ISSUED TO LOWER LEVEL:    7412069  ACCURACY: 4.07197
L1D TIMELY PREFETCHES:     301817 LATE PREFETCHES: 2487 DROPPED PREFETCHES: 344248
L1D PREFETCHES SAME FILL-ORIGIN LEVEL: 341014 DIFFERENT FILL-ORIGIN LEVEL: 7071055
L1D AVERAGE MISS LATENCY: 22.6654 cycles
L1D RQ	ACCESS:   48093301	FORWARD:          0	MERGED:   12952088	TO_CACHE:   34987692
L1D WQ	ACCESS:   15743084	FORWARD:     153679	MERGED:     242885	TO_CACHE:   15500199
L1D PQ	ACCESS:   27097773	FORWARD:          0	MERGED:     672505	TO_CACHE:   26425110

L1D UNIQUE REGIONS ACCESSED: 0
L1D REGIONS CONFLICTS: 0
L1D Cross Page Prefetch Requests: 5410508
L1D Same Page Prefetch Requests: 28999899
L1D ROI Sum of L1D PQ occupancy: 408043129
L1D PREFETCHES PUSHED FROM L2C: 0
L1I TOTAL     ACCESS:   38611569  HIT:   38591673  MISS:      19896  HIT %:    99.9485  MISS %:  0.0515286   MPKI: 0.09948
L1I LOAD      ACCESS:   38611569  HIT:   38591673  MISS:      19896  HIT %:    99.9485  MISS %:  0.0515286   MPKI: 0.09948
L1I PREFETCH  REQUESTED:          0  ISSUED:          0  USEFUL:          0  USELESS:          0
L1I USEFUL LOAD PREFETCHES:          0 PREFETCH ISSUED TO LOWER LEVEL:          0  ACCURACY: -nan
L1I TIMELY PREFETCHES:          0 LATE PREFETCHES: 0 DROPPED PREFETCHES: 0
L1I PREFETCHES SAME FILL-ORIGIN LEVEL: 0 DIFFERENT FILL-ORIGIN LEVEL: 0
L1I AVERAGE MISS LATENCY: 41.5158 cycles
L1I RQ	ACCESS:   58374630	FORWARD:          0	MERGED:   19752988	TO_CACHE:   38621642

BTB TOTAL     ACCESS:   19220334  HIT:   18648459  MISS:     571875  HIT %:    97.0246  MISS %:    2.97536   MPKI: 2.85938
BTB BRANCH_DIRECT_JUMP	ACCESS:     773319  HIT:     773259  MISS:         60
BTB BRANCH_INDIRECT	ACCESS:          0  HIT:          0  MISS:          0
BTB BRANCH_CONDITIONAL	ACCESS:   14577656  HIT:   14577332  MISS:        324
BTB BRANCH_DIRECT_CALL	ACCESS:    1934678  HIT:    1934479  MISS:        199
BTB BRANCH_INDIRECT_CALL	ACCESS:          0  HIT:          0  MISS:          0
BTB BRANCH_RETURN	ACCESS:    1934681  HIT:    1363389  MISS:     571292
BTB BRANCH_OTHER ACCESS:          0  HIT:          0  MISS:          0

L2C TOTAL     ACCESS:    8530495  HIT:    8383439  MISS:     147056  HIT %:    98.2761  MISS %:    1.72389   MPKI: 0.73528
L2C LOAD      ACCESS:     213512  HIT:     184574  MISS:      28938  HIT %:    86.4467  MISS %:    13.5533   MPKI: 0.14469
L2C DATA LOAD MPKI: 0.05627
L2C INSTRUCTION LOAD MPKI: 0.08842
L2C RFO       ACCESS:     329647  HIT:     273031  MISS:      56616  HIT %:    82.8253  MISS %:    17.1747   MPKI: 0.28308
L2C PREFETCH  ACCESS:    7378751  HIT:    7320673  MISS:      58078  HIT %:    99.2129  MISS %:   0.787098   MPKI: 0.29039
L2C DATA PREFETCH MPKI: 0.29039
L2C INSTRUCTION PREFETCH MPKI: 0
L2C WRITEBACK ACCESS:     410467  HIT:     407432  MISS:       3035  HIT %:    99.2606  MISS %:   0.739402   MPKI: 0.015175
L2C LOAD TRANSLATION ACCESS:        658  HIT:        592  MISS:         66  HIT %:    89.9696  MISS %:    10.0304   MPKI: 0.00033
L2C TRANSLATION FROM L1D PREFETCHER ACCESS:     197460  HIT:     197137  MISS:        323  HIT %:    99.8364  MISS %:   0.163577   MPKI: 0.001615
L2C PREFETCH  REQUESTED:          0  ISSUED:          0  USEFUL:      25457  USELESS:      33166
L2C USEFUL LOAD PREFETCHES:      25457 PREFETCH ISSUED TO LOWER LEVEL:      59027  ACCURACY: 43.1277
L2C TIMELY PREFETCHES:      25457 LATE PREFETCHES: 949 DROPPED PREFETCHES: 0
L2C PREFETCHES SAME FILL-ORIGIN LEVEL: 41494 DIFFERENT FILL-ORIGIN LEVEL: 0
L2C AVERAGE MISS LATENCY: 86.1064 cycles
L2C RQ	ACCESS:     741277	FORWARD:          0	MERGED:          0	TO_CACHE:     741277
L2C WQ	ACCESS:     410467	FORWARD:          9	MERGED:          0	TO_CACHE:     410467
L2C PQ	ACCESS:    7412067	FORWARD:          0	MERGED:        114	TO_CACHE:    7411944

L2C Instructions Evicting Data 17028
L2C Translations Evicting Data 316
L2C Data Evicting Data 108989
L2C Instructions Evicting Instructions 583
L2C Translations Evicting Instructions 73
L2C Data Evicting Instructions 16648
L2C Instructions Evicting Translations 73
L2C Translations Evicting Translations 0
L2C Data Evicting Translations 311
L2C Dense regions hint from L2: 0
PSCL5 TOTAL     ACCESS:     198118  HIT:     198118  MISS:          0  HIT %:        100  MISS %:          0   MPKI: 0
PSCL5 LOAD TRANSLATION ACCESS:        658  HIT:        658  MISS:          0  HIT %:        100  MISS %:          0   MPKI: 0
PSCL5 TRANSLATION FROM L1D PREFETCHER ACCESS:     197460  HIT:     197460  MISS:          0  HIT %:        100  MISS %:          0   MPKI: 0
PSCL5 PREFETCH  REQUESTED:          0  ISSUED:          0  USEFUL:          0  USELESS:          0
PSCL5 USEFUL LOAD PREFETCHES:          0 PREFETCH ISSUED TO LOWER LEVEL:          0  ACCURACY: -nan
PSCL5 TIMELY PREFETCHES:          0 LATE PREFETCHES: 0 DROPPED PREFETCHES: 0
PSCL5 PREFETCHES SAME FILL-ORIGIN LEVEL: 0 DIFFERENT FILL-ORIGIN LEVEL: 0

PSCL4 TOTAL     ACCESS:     198118  HIT:     198118  MISS:          0  HIT %:        100  MISS %:          0   MPKI: 0
PSCL4 LOAD TRANSLATION ACCESS:        658  HIT:        658  MISS:          0  HIT %:        100  MISS %:          0   MPKI: 0
PSCL4 TRANSLATION FROM L1D PREFETCHER ACCESS:     197460  HIT:     197460  MISS:          0  HIT %:        100  MISS %:          0   MPKI: 0
PSCL4 PREFETCH  REQUESTED:          0  ISSUED:          0  USEFUL:          0  USELESS:          0
PSCL4 USEFUL LOAD PREFETCHES:          0 PREFETCH ISSUED TO LOWER LEVEL:          0  ACCURACY: -nan
PSCL4 TIMELY PREFETCHES:          0 LATE PREFETCHES: 0 DROPPED PREFETCHES: 0
PSCL4 PREFETCHES SAME FILL-ORIGIN LEVEL: 0 DIFFERENT FILL-ORIGIN LEVEL: 0

PSCL3 TOTAL     ACCESS:     198118  HIT:     198118  MISS:          0  HIT %:        100  MISS %:          0   MPKI: 0
PSCL3 LOAD TRANSLATION ACCESS:        658  HIT:        658  MISS:          0  HIT %:        100  MISS %:          0   MPKI: 0
PSCL3 TRANSLATION FROM L1D PREFETCHER ACCESS:     197460  HIT:     197460  MISS:          0  HIT %:        100  MISS %:          0   MPKI: 0
PSCL3 PREFETCH  REQUESTED:          0  ISSUED:          0  USEFUL:          0  USELESS:          0
PSCL3 USEFUL LOAD PREFETCHES:          0 PREFETCH ISSUED TO LOWER LEVEL:          0  ACCURACY: -nan
PSCL3 TIMELY PREFETCHES:          0 LATE PREFETCHES: 0 DROPPED PREFETCHES: 0
PSCL3 PREFETCHES SAME FILL-ORIGIN LEVEL: 0 DIFFERENT FILL-ORIGIN LEVEL: 0

PSCL2 TOTAL     ACCESS:     198118  HIT:     198118  MISS:          0  HIT %:        100  MISS %:          0   MPKI: 0
PSCL2 LOAD TRANSLATION ACCESS:        658  HIT:        658  MISS:          0  HIT %:        100  MISS %:          0   MPKI: 0
PSCL2 TRANSLATION FROM L1D PREFETCHER ACCESS:     197460  HIT:     197460  MISS:          0  HIT %:        100  MISS %:          0   MPKI: 0
PSCL2 PREFETCH  REQUESTED:          0  ISSUED:          0  USEFUL:          0  USELESS:          0
PSCL2 USEFUL LOAD PREFETCHES:          0 PREFETCH ISSUED TO LOWER LEVEL:          0  ACCURACY: -nan
PSCL2 TIMELY PREFETCHES:          0 LATE PREFETCHES: 0 DROPPED PREFETCHES: 0
PSCL2 PREFETCHES SAME FILL-ORIGIN LEVEL: 0 DIFFERENT FILL-ORIGIN LEVEL: 0

LLC TOTAL     ACCESS:     219926  HIT:     176899  MISS:      43027  HIT %:    80.4357  MISS %:    19.5643   MPKI: 0.215135
LLC LOAD      ACCESS:      27989  HIT:      22839  MISS:       5150  HIT %:    81.5999  MISS %:    18.4001   MPKI: 0.02575
LLC RFO       ACCESS:      56616  HIT:      55765  MISS:        851  HIT %:    98.4969  MISS %:    1.50311   MPKI: 0.004255
LLC PREFETCH  ACCESS:      59027  HIT:      22632  MISS:      36395  HIT %:    38.3418  MISS %:    61.6582   MPKI: 0.181975
LLC WRITEBACK ACCESS:      75905  HIT:      75363  MISS:        542  HIT %:    99.2859  MISS %:    0.71405   MPKI: 0.00271
LLC LOAD TRANSLATION ACCESS:         66  HIT:         57  MISS:          9  HIT %:    86.3636  MISS %:    13.6364   MPKI: 4.5e-05
LLC TRANSLATION FROM L1D PREFETCHER ACCESS:        323  HIT:        243  MISS:         80  HIT %:    75.2322  MISS %:    24.7678   MPKI: 0.0004
LLC PREFETCH  REQUESTED:          0  ISSUED:          0  USEFUL:      12797  USELESS:      16322
LLC USEFUL LOAD PREFETCHES:      12797 PREFETCH ISSUED TO LOWER LEVEL:      36395  ACCURACY: 35.1614
LLC TIMELY PREFETCHES:      12797 LATE PREFETCHES: 0 DROPPED PREFETCHES: 0
LLC PREFETCHES SAME FILL-ORIGIN LEVEL: 0 DIFFERENT FILL-ORIGIN LEVEL: 0
LLC AVERAGE MISS LATENCY: 194.975 cycles
LLC RQ	ACCESS:      84994	FORWARD:          0	MERGED:          0	TO_CACHE:      84994
LLC WQ	ACCESS:      75905	FORWARD:          0	MERGED:          0	TO_CACHE:      75905
LLC PQ	ACCESS:      59027	FORWARD:          0	MERGED:          0	TO_CACHE:      59027

LLC Dense regions hint to LLC: 0

RAW hits: 719723
Loads Generated: 48813024
Loads sent to L1D: 48093301
Stores Generated: 15743048
Stores sent to L1D: 15743084
Major fault: 0 Minor fault: 1068
Allocated PAGES: 1068

DRAM Statistics
 CHANNEL 0
 RQ ROW_BUFFER_HIT:      19072  ROW_BUFFER_MISS:      23407
 DBUS_CONGESTED:         29
 WQ ROW_BUFFER_HIT:       5501  ROW_BUFFER_MISS:      14380  FULL:          0

 AVG_CONGESTED_CYCLE: 5
 All warmup complete: 2
Channel 0 Bank busy for read cycles: 0
Channel 0 Bank busy for write cycles: 0
Channel 0
Rank 0
0banks busy for read cycles: 320478732
0banks busy for write cycles: 2429
1banks busy for read cycles: 773838
1banks busy for write cycles: 337871
2banks busy for read cycles: 229988
2banks busy for write cycles: 32554
3banks busy for read cycles: 158512
3banks busy for write cycles: 21962
4banks busy for read cycles: 142084
4banks busy for write cycles: 19815
5banks busy for read cycles: 120169
5banks busy for write cycles: 15743
6banks busy for read cycles: 94580
6banks busy for write cycles: 19895
7banks busy for read cycles: 78206
7banks busy for write cycles: 37301
8banks busy for read cycles: 71269
8banks busy for write cycles: 325584

CPU 0 Branch Prediction Accuracy: 98.8042% MPKI: 1.19778 Average ROB Occupancy at Mispredict: 76.5369
Branch types
NOT_BRANCH: 175323359 87.6617%
BRANCH_DIRECT_JUMP: 773319 0.386659%
BRANCH_INDIRECT: 0 0%
BRANCH_CONDITIONAL: 20033638 10.0168%
BRANCH_DIRECT_CALL: 1934678 0.967339%
BRANCH_INDIRECT_CALL: 0 0%
BRANCH_RETURN: 1934681 0.967341%
BRANCH_OTHER: 0 0%

DRAM PAGES: 1048576
Allocated PAGES: 1068
