526208 bits of metadata so far, 405638 left out of 526336 total budget
table size is 13521 bits, 2253 entries for 5 bit, 1931 entries for 6 bit
526208 total bits (64.23KB)

*** ChampSim Multicore Out-of-Order Simulator ***

Warmup Instructions: 50000000
Simulation Instructions: 200000000
Number of CPUs: 1
LLC sets: 2048
LLC ways: 16
Off-chip DRAM Size: 4096 MB Channels: 1 Width: 64-bit Data Rate: 6400 MT/s
argv[0]: ./ChampSim/Berti/bin/multiperspective_perceptron-no-vberti-no-no-no-no-no-lru-lru-lru-srrip-drrip-lru-lru-lru-1core-no
argv[1]: -warmup_instructions
argv[2]: 50000000
argv[3]: -simulation_instructions
argv[4]: 200000000
argv[5]: -traces
argv[6]: traces/spec2k17_ten/649.fotonik3d_s-10881B.champsimtrace.xz
CPU 0 runs traces/spec2k17_ten/649.fotonik3d_s-10881B.champsimtrace.xz
.xz
CPU 0 Multiperspective perceptron branch predictor
BTB has LRU replacement policy
ITLB has LRU replacement policy
DTLB has LRU replacement policy
STLB has LRU replacement policy
L1I has LRU replacement policy
History Sets: 8
History Ways: 16
BERTI Size: 16
BERTI Stride Size: 16
L1D has LRU replacement policy
Initialize SRRIP state for L2C
Initialize DRRIP state for LLC
Heartbeat CPU 0 instructions: 10000003 cycles: 5056971 heartbeat IPC: 1.97747 cumulative IPC: 1.97747 (Simulation time: 0 hr 12 min 18 sec) 
Heartbeat CPU 0 instructions: 20000000 cycles: 10123426 heartbeat IPC: 1.97377 cumulative IPC: 1.97562 (Simulation time: 0 hr 19 min 1 sec) 
Heartbeat CPU 0 instructions: 30000000 cycles: 15196599 heartbeat IPC: 1.97115 cumulative IPC: 1.97413 (Simulation time: 0 hr 28 min 7 sec) 
Heartbeat CPU 0 instructions: 40000002 cycles: 20260043 heartbeat IPC: 1.97494 cumulative IPC: 1.97433 (Simulation time: 0 hr 37 min 28 sec) 
Heartbeat CPU 0 instructions: 50000002 cycles: 25320365 heartbeat IPC: 1.97616 cumulative IPC: 1.9747 (Simulation time: 0 hr 46 min 5 sec) 

Warmup complete CPU 0 instructions: 50000002 cycles: 25320365 (Simulation time: 0 hr 46 min 5 sec) 

Heartbeat CPU 0 instructions: 60000000 cycles: 40091975 heartbeat IPC: 0.676974 cumulative IPC: 0.676974 (Simulation time: 0 hr 55 min 28 sec) 
Heartbeat CPU 0 instructions: 70000000 cycles: 54855512 heartbeat IPC: 0.677344 cumulative IPC: 0.677159 (Simulation time: 1 hr 2 min 29 sec) 
Heartbeat CPU 0 instructions: 80000003 cycles: 69599553 heartbeat IPC: 0.67824 cumulative IPC: 0.677519 (Simulation time: 1 hr 11 min 14 sec) 
Heartbeat CPU 0 instructions: 90000001 cycles: 84364431 heartbeat IPC: 0.677283 cumulative IPC: 0.67746 (Simulation time: 1 hr 20 min 30 sec) 
Heartbeat CPU 0 instructions: 100000000 cycles: 99181359 heartbeat IPC: 0.674904 cumulative IPC: 0.676947 (Simulation time: 1 hr 28 min 18 sec) 
Heartbeat CPU 0 instructions: 110000000 cycles: 113915484 heartbeat IPC: 0.678697 cumulative IPC: 0.677238 (Simulation time: 1 hr 34 min 28 sec) 
Heartbeat CPU 0 instructions: 120000003 cycles: 128721148 heartbeat IPC: 0.675417 cumulative IPC: 0.676977 (Simulation time: 1 hr 39 min 49 sec) 
Heartbeat CPU 0 instructions: 130000000 cycles: 143479240 heartbeat IPC: 0.677594 cumulative IPC: 0.677055 (Simulation time: 1 hr 44 min 13 sec) 
Heartbeat CPU 0 instructions: 140000002 cycles: 158263910 heartbeat IPC: 0.676376 cumulative IPC: 0.676979 (Simulation time: 1 hr 47 min 54 sec) 
Heartbeat CPU 0 instructions: 150000001 cycles: 173027053 heartbeat IPC: 0.677362 cumulative IPC: 0.677017 (Simulation time: 1 hr 50 min 48 sec) 
Heartbeat CPU 0 instructions: 160000001 cycles: 187784763 heartbeat IPC: 0.677612 cumulative IPC: 0.677071 (Simulation time: 1 hr 52 min 57 sec) 
Heartbeat CPU 0 instructions: 170000001 cycles: 202561439 heartbeat IPC: 0.676742 cumulative IPC: 0.677044 (Simulation time: 1 hr 54 min 43 sec) 
Heartbeat CPU 0 instructions: 180000002 cycles: 217300502 heartbeat IPC: 0.678469 cumulative IPC: 0.677153 (Simulation time: 1 hr 56 min 15 sec) 
Heartbeat CPU 0 instructions: 190000002 cycles: 232038371 heartbeat IPC: 0.678524 cumulative IPC: 0.677251 (Simulation time: 1 hr 57 min 22 sec) 
Heartbeat CPU 0 instructions: 200000002 cycles: 246795784 heartbeat IPC: 0.677626 cumulative IPC: 0.677276 (Simulation time: 1 hr 58 min 27 sec) 
Heartbeat CPU 0 instructions: 210000001 cycles: 261574589 heartbeat IPC: 0.676645 cumulative IPC: 0.677237 (Simulation time: 1 hr 59 min 32 sec) 
Heartbeat CPU 0 instructions: 220000000 cycles: 276335123 heartbeat IPC: 0.677482 cumulative IPC: 0.677251 (Simulation time: 2 hr 0 min 37 sec) 
Heartbeat CPU 0 instructions: 230000001 cycles: 291098402 heartbeat IPC: 0.677356 cumulative IPC: 0.677257 (Simulation time: 2 hr 1 min 41 sec) 
Heartbeat CPU 0 instructions: 240000002 cycles: 305842040 heartbeat IPC: 0.678259 cumulative IPC: 0.67731 (Simulation time: 2 hr 2 min 44 sec) 
Heartbeat CPU 0 instructions: 250000000 cycles: 320627586 heartbeat IPC: 0.676336 cumulative IPC: 0.677261 (Simulation time: 2 hr 3 min 46 sec) 
Finished CPU 0 instructions: 200000002 cycles: 295307222 cumulative IPC: 0.677261 (Simulation time: 2 hr 3 min 46 sec) 

ChampSim completed all CPUs

Region of Interest Statistics

CPU 0 cumulative IPC: 0.677261 instructions: 200000002 cycles: 295307222
ITLB TOTAL     ACCESS:   26688693  HIT:   26688693  MISS:          0  HIT %:        100  MISS %:          0   MPKI: 0
ITLB LOAD TRANSLATION ACCESS:   26688693  HIT:   26688693  MISS:          0  HIT %:        100  MISS %:          0   MPKI: 0
ITLB PREFETCH  REQUESTED:          0  ISSUED:          0  USEFUL:          0  USELESS:          0
ITLB USEFUL LOAD PREFETCHES:          0 PREFETCH ISSUED TO LOWER LEVEL:          0  ACCURACY: -nan
ITLB TIMELY PREFETCHES:          0 LATE PREFETCHES: 0 DROPPED PREFETCHES: 0
ITLB PREFETCHES SAME FILL-ORIGIN LEVEL: 0 DIFFERENT FILL-ORIGIN LEVEL: 0
ITLB AVERAGE MISS LATENCY: -nan cycles
ITLB RQ	ACCESS:   28180930	FORWARD:          0	MERGED:    1492237	TO_CACHE:   26688693

DTLB TOTAL     ACCESS:   86735739  HIT:   85704444  MISS:    1031295  HIT %:     98.811  MISS %:    1.18901   MPKI: 5.15647
DTLB LOAD TRANSLATION ACCESS:   86735739  HIT:   85704444  MISS:    1031295  HIT %:     98.811  MISS %:    1.18901   MPKI: 5.15647
DTLB PREFETCH  REQUESTED:          0  ISSUED:          0  USEFUL:          0  USELESS:          0
DTLB USEFUL LOAD PREFETCHES:          0 PREFETCH ISSUED TO LOWER LEVEL:          0  ACCURACY: -nan
DTLB TIMELY PREFETCHES:          0 LATE PREFETCHES: 0 DROPPED PREFETCHES: 0
DTLB PREFETCHES SAME FILL-ORIGIN LEVEL: 0 DIFFERENT FILL-ORIGIN LEVEL: 0
DTLB AVERAGE MISS LATENCY: 116.988 cycles
DTLB RQ	ACCESS:   96336956	FORWARD:          0	MERGED:    9554174	TO_CACHE:   86782782

STLB TOTAL     ACCESS:   16922303  HIT:   16243333  MISS:     678970  HIT %:    95.9877  MISS %:    4.01228   MPKI: 3.39485
STLB LOAD TRANSLATION ACCESS:    1031295  HIT:     518270  MISS:     513025  HIT %:    50.2543  MISS %:    49.7457   MPKI: 2.56512
STLB TRANSLATION FROM L1D PREFETCHER ACCESS:   15891008  HIT:   15725063  MISS:     165945  HIT %:    98.9557  MISS %:    1.04427   MPKI: 0.829725
STLB PREFETCH  REQUESTED:          0  ISSUED:          0  USEFUL:     165945  USELESS:          0
STLB USEFUL LOAD PREFETCHES:     165945 PREFETCH ISSUED TO LOWER LEVEL:          0  ACCURACY: inf
STLB TIMELY PREFETCHES:     165945 LATE PREFETCHES: 4588 DROPPED PREFETCHES: 5826649
STLB PREFETCHES SAME FILL-ORIGIN LEVEL: 0 DIFFERENT FILL-ORIGIN LEVEL: 0
STLB AVERAGE MISS LATENCY: 159.102 cycles
STLB RQ	ACCESS:   54834352	FORWARD:          0	MERGED:   32042379	TO_CACHE:   22791973

STLB Hit, L1D data hit: 0
STLB Hit, L2C data hit: 0
STLB Hit, LLC data hit: 0
STLB Hit, LLC data miss: 0
STLB STLB hints to L2: 0
L1D TOTAL     ACCESS:  120096296  HIT:  116126017  MISS:    3970279  HIT %:    96.6941  MISS %:    3.30591   MPKI: 19.8514
L1D LOAD      ACCESS:   83312183  HIT:   81859138  MISS:    1453045  HIT %:    98.2559  MISS %:     1.7441   MPKI: 7.26522
L1D RFO       ACCESS:   12822616  HIT:   12822616  MISS:          0  HIT %:        100  MISS %:          0   MPKI: 0
L1D PREFETCH  ACCESS:   23961497  HIT:   21444263  MISS:    2517234  HIT %:    89.4947  MISS %:    10.5053   MPKI: 12.5862
L1D PREFETCH  REQUESTED:  205625074  ISSUED:  109140750  USEFUL:    2394999  USELESS:     122270
L1D USEFUL LOAD PREFETCHES:    2394999 PREFETCH ISSUED TO LOWER LEVEL:   16071073  ACCURACY: 14.9025
L1D TIMELY PREFETCHES:    2394999 LATE PREFETCHES: 2434 DROPPED PREFETCHES: 15712396
L1D PREFETCHES SAME FILL-ORIGIN LEVEL: 2519668 DIFFERENT FILL-ORIGIN LEVEL: 13551405
L1D AVERAGE MISS LATENCY: 133.464 cycles
L1D RQ	ACCESS:  127600768	FORWARD:          0	MERGED:   44032864	TO_CACHE:   83514339
L1D WQ	ACCESS:   12822617	FORWARD:      53565	MERGED:          0	TO_CACHE:   12822617
L1D PQ	ACCESS:   55337693	FORWARD:          0	MERGED:    1534636	TO_CACHE:   53803057

L1D UNIQUE REGIONS ACCESSED: 0
L1D REGIONS CONFLICTS: 0
L1D Cross Page Prefetch Requests: 40530821
L1D Same Page Prefetch Requests: 43258116
L1D ROI Sum of L1D PQ occupancy: 1892046115
L1D PREFETCHES PUSHED FROM L2C: 0
L1I TOTAL     ACCESS:   28180928  HIT:   28180928  MISS:          0  HIT %:        100  MISS %:          0   MPKI: 0
L1I LOAD      ACCESS:   28180928  HIT:   28180928  MISS:          0  HIT %:        100  MISS %:          0   MPKI: 0
L1I PREFETCH  REQUESTED:          0  ISSUED:          0  USEFUL:          0  USELESS:          0
L1I USEFUL LOAD PREFETCHES:          0 PREFETCH ISSUED TO LOWER LEVEL:          0  ACCURACY: -nan
L1I TIMELY PREFETCHES:          0 LATE PREFETCHES: 0 DROPPED PREFETCHES: 0
L1I PREFETCHES SAME FILL-ORIGIN LEVEL: 0 DIFFERENT FILL-ORIGIN LEVEL: 0
L1I AVERAGE MISS LATENCY: -nan cycles
L1I RQ	ACCESS:   64253100	FORWARD:          0	MERGED:   36072170	TO_CACHE:   28180930

BTB TOTAL     ACCESS:    2243766  HIT:    2243761  MISS:          5  HIT %:    99.9998  MISS %: 0.00022284   MPKI: 2.5e-05
BTB BRANCH_DIRECT_JUMP	ACCESS:     160245  HIT:     160244  MISS:          1
BTB BRANCH_INDIRECT	ACCESS:          0  HIT:          0  MISS:          0
BTB BRANCH_CONDITIONAL	ACCESS:    2083521  HIT:    2083517  MISS:          4
BTB BRANCH_DIRECT_CALL	ACCESS:          0  HIT:          0  MISS:          0
BTB BRANCH_INDIRECT_CALL	ACCESS:          0  HIT:          0  MISS:          0
BTB BRANCH_RETURN	ACCESS:          0  HIT:          0  MISS:          0
BTB BRANCH_OTHER ACCESS:          0  HIT:          0  MISS:          0

L2C TOTAL     ACCESS:   24787384  HIT:   19045072  MISS:    5742312  HIT %:    76.8337  MISS %:    23.1663   MPKI: 28.7116
L2C LOAD      ACCESS:    1450611  HIT:     723340  MISS:     727271  HIT %:    49.8645  MISS %:    50.1355   MPKI: 3.63635
L2C DATA LOAD MPKI: 3.63635
L2C INSTRUCTION LOAD MPKI: 0
L2C PREFETCH  ACCESS:   14882086  HIT:   10021036  MISS:    4861050  HIT %:    67.3362  MISS %:    32.6638   MPKI: 24.3052
L2C DATA PREFETCH MPKI: 24.3052
L2C INSTRUCTION PREFETCH MPKI: 0
L2C WRITEBACK ACCESS:    1942942  HIT:    1875861  MISS:      67081  HIT %:    96.5475  MISS %:    3.45255   MPKI: 0.335405
L2C LOAD TRANSLATION ACCESS:     513222  HIT:     512201  MISS:       1021  HIT %:    99.8011  MISS %:   0.198939   MPKI: 0.005105
L2C TRANSLATION FROM L1D PREFETCHER ACCESS:    5998523  HIT:    5912634  MISS:      85889  HIT %:    98.5682  MISS %:    1.43184   MPKI: 0.429445
L2C PREFETCH  REQUESTED:          0  ISSUED:          0  USEFUL:     809116  USELESS:    4138251
L2C USEFUL LOAD PREFETCHES:     809116 PREFETCH ISSUED TO LOWER LEVEL:    4928769  ACCURACY: 16.4162
L2C TIMELY PREFETCHES:     809116 LATE PREFETCHES: 67719 DROPPED PREFETCHES: 0
L2C PREFETCHES SAME FILL-ORIGIN LEVEL: 3650390 DIFFERENT FILL-ORIGIN LEVEL: 0
L2C AVERAGE MISS LATENCY: 222.33 cycles
L2C RQ	ACCESS:    7962355	FORWARD:          0	MERGED:          0	TO_CACHE:    7962355
L2C WQ	ACCESS:    1942942	FORWARD:          0	MERGED:          0	TO_CACHE:    1942942
L2C PQ	ACCESS:   16071073	FORWARD:          0	MERGED:         13	TO_CACHE:   16071060

L2C Instructions Evicting Data 0
L2C Translations Evicting Data 85871
L2C Data Evicting Data 5503721
L2C Instructions Evicting Instructions 0
L2C Translations Evicting Instructions 0
L2C Data Evicting Instructions 0
L2C Instructions Evicting Translations 0
L2C Translations Evicting Translations 1039
L2C Data Evicting Translations 84600
L2C Dense regions hint from L2: 0
PSCL5 TOTAL     ACCESS:    6510206  HIT:    6510206  MISS:          0  HIT %:        100  MISS %:          0   MPKI: 0
PSCL5 LOAD TRANSLATION ACCESS:     513024  HIT:     513024  MISS:          0  HIT %:        100  MISS %:          0   MPKI: 0
PSCL5 TRANSLATION FROM L1D PREFETCHER ACCESS:    5997182  HIT:    5997182  MISS:          0  HIT %:        100  MISS %:          0   MPKI: 0
PSCL5 PREFETCH  REQUESTED:          0  ISSUED:          0  USEFUL:          0  USELESS:          0
PSCL5 USEFUL LOAD PREFETCHES:          0 PREFETCH ISSUED TO LOWER LEVEL:          0  ACCURACY: -nan
PSCL5 TIMELY PREFETCHES:          0 LATE PREFETCHES: 0 DROPPED PREFETCHES: 0
PSCL5 PREFETCHES SAME FILL-ORIGIN LEVEL: 0 DIFFERENT FILL-ORIGIN LEVEL: 0

PSCL4 TOTAL     ACCESS:    6510206  HIT:    6510206  MISS:          0  HIT %:        100  MISS %:          0   MPKI: 0
PSCL4 LOAD TRANSLATION ACCESS:     513024  HIT:     513024  MISS:          0  HIT %:        100  MISS %:          0   MPKI: 0
PSCL4 TRANSLATION FROM L1D PREFETCHER ACCESS:    5997182  HIT:    5997182  MISS:          0  HIT %:        100  MISS %:          0   MPKI: 0
PSCL4 PREFETCH  REQUESTED:          0  ISSUED:          0  USEFUL:          0  USELESS:          0
PSCL4 USEFUL LOAD PREFETCHES:          0 PREFETCH ISSUED TO LOWER LEVEL:          0  ACCURACY: -nan
PSCL4 TIMELY PREFETCHES:          0 LATE PREFETCHES: 0 DROPPED PREFETCHES: 0
PSCL4 PREFETCHES SAME FILL-ORIGIN LEVEL: 0 DIFFERENT FILL-ORIGIN LEVEL: 0

PSCL3 TOTAL     ACCESS:    6510206  HIT:    6510206  MISS:          0  HIT %:        100  MISS %:          0   MPKI: 0
PSCL3 LOAD TRANSLATION ACCESS:     513024  HIT:     513024  MISS:          0  HIT %:        100  MISS %:          0   MPKI: 0
PSCL3 TRANSLATION FROM L1D PREFETCHER ACCESS:    5997182  HIT:    5997182  MISS:          0  HIT %:        100  MISS %:          0   MPKI: 0
PSCL3 PREFETCH  REQUESTED:          0  ISSUED:          0  USEFUL:          0  USELESS:          0
PSCL3 USEFUL LOAD PREFETCHES:          0 PREFETCH ISSUED TO LOWER LEVEL:          0  ACCURACY: -nan
PSCL3 TIMELY PREFETCHES:          0 LATE PREFETCHES: 0 DROPPED PREFETCHES: 0
PSCL3 PREFETCHES SAME FILL-ORIGIN LEVEL: 0 DIFFERENT FILL-ORIGIN LEVEL: 0

PSCL2 TOTAL     ACCESS:    6496481  HIT:    6495272  MISS:       1209  HIT %:    99.9814  MISS %:  0.0186101   MPKI: 0.006045
PSCL2 LOAD TRANSLATION ACCESS:     513037  HIT:     511828  MISS:       1209  HIT %:    99.7643  MISS %:   0.235656   MPKI: 0.006045
PSCL2 TRANSLATION FROM L1D PREFETCHER ACCESS:    5983444  HIT:    5983444  MISS:          0  HIT %:        100  MISS %:          0   MPKI: 0
PSCL2 PREFETCH  REQUESTED:          0  ISSUED:          0  USEFUL:          0  USELESS:          0
PSCL2 USEFUL LOAD PREFETCHES:          0 PREFETCH ISSUED TO LOWER LEVEL:          0  ACCURACY: -nan
PSCL2 TIMELY PREFETCHES:          0 LATE PREFETCHES: 0 DROPPED PREFETCHES: 0
PSCL2 PREFETCHES SAME FILL-ORIGIN LEVEL: 0 DIFFERENT FILL-ORIGIN LEVEL: 0

LLC TOTAL     ACCESS:    7618049  HIT:    2202958  MISS:    5415091  HIT %:    28.9176  MISS %:    71.0824   MPKI: 27.0755
LLC LOAD      ACCESS:     659552  HIT:      42313  MISS:     617239  HIT %:    6.41542  MISS %:    93.5846   MPKI: 3.08619
LLC PREFETCH  ACCESS:    4928769  HIT:     246831  MISS:    4681938  HIT %:    5.00796  MISS %:     94.992   MPKI: 23.4097
LLC WRITEBACK ACCESS:    1942818  HIT:    1908286  MISS:      34532  HIT %:    98.2226  MISS %:    1.77742   MPKI: 0.17266
LLC LOAD TRANSLATION ACCESS:       1021  HIT:        851  MISS:        170  HIT %:    83.3497  MISS %:    16.6503   MPKI: 0.00085
LLC TRANSLATION FROM L1D PREFETCHER ACCESS:      85889  HIT:       4677  MISS:      81212  HIT %:     5.4454  MISS %:    94.5546   MPKI: 0.40606
LLC PREFETCH  REQUESTED:          0  ISSUED:          0  USEFUL:       4296  USELESS:    4759474
LLC USEFUL LOAD PREFETCHES:       4296 PREFETCH ISSUED TO LOWER LEVEL:    4681938  ACCURACY: 0.0917569
LLC TIMELY PREFETCHES:       4296 LATE PREFETCHES: 0 DROPPED PREFETCHES: 0
LLC PREFETCHES SAME FILL-ORIGIN LEVEL: 0 DIFFERENT FILL-ORIGIN LEVEL: 0
LLC AVERAGE MISS LATENCY: 200.743 cycles
LLC RQ	ACCESS:     746461	FORWARD:          0	MERGED:          0	TO_CACHE:     746461
LLC WQ	ACCESS:    1942818	FORWARD:          0	MERGED:          0	TO_CACHE:    1942818
LLC PQ	ACCESS:    4928769	FORWARD:          0	MERGED:          0	TO_CACHE:    4928769

LLC Dense regions hint to LLC: 0

RAW hits: 440744
Loads Generated: 128041520
Loads sent to L1D: 127600768
Stores Generated: 12822620
Stores sent to L1D: 12822617
Major fault: 0 Minor fault: 641201
Allocated PAGES: 641201

DRAM Statistics
 CHANNEL 0
 RQ ROW_BUFFER_HIT:    1707878  ROW_BUFFER_MISS:    3672681
 DBUS_CONGESTED:       1949
 WQ ROW_BUFFER_HIT:     417973  ROW_BUFFER_MISS:    1524603  FULL:          0

 AVG_CONGESTED_CYCLE: 5
 All warmup complete: 2
Channel 0 Bank busy for read cycles: 0
Channel 0 Bank busy for write cycles: 0
Channel 0
Rank 0
0banks busy for read cycles: 606465
0banks busy for write cycles: 136
1banks busy for read cycles: 55111974
1banks busy for write cycles: 510920
2banks busy for read cycles: 55744125
2banks busy for write cycles: 522137
3banks busy for read cycles: 49925887
3banks busy for write cycles: 549612
4banks busy for read cycles: 34802801
4banks busy for write cycles: 591094
5banks busy for read cycles: 19809362
5banks busy for write cycles: 789608
6banks busy for read cycles: 9349771
6banks busy for write cycles: 1840768
7banks busy for read cycles: 3290454
7banks busy for write cycles: 9821164
8banks busy for read cycles: 851834
8banks busy for write cycles: 51189111

CPU 0 Branch Prediction Accuracy: 99.9926% MPKI: 0.00083 Average ROB Occupancy at Mispredict: 342.584
Branch types
NOT_BRANCH: 197595958 98.798%
BRANCH_DIRECT_JUMP: 160245 0.0801225%
BRANCH_INDIRECT: 0 0%
BRANCH_CONDITIONAL: 2243766 1.12188%
BRANCH_DIRECT_CALL: 0 0%
BRANCH_INDIRECT_CALL: 0 0%
BRANCH_RETURN: 0 0%
BRANCH_OTHER: 0 0%

DRAM PAGES: 1048576
Allocated PAGES: 641201
