526208 bits of metadata so far, 405638 left out of 526336 total budget
table size is 13521 bits, 2253 entries for 5 bit, 1931 entries for 6 bit
526208 total bits (64.23KB)

*** ChampSim Multicore Out-of-Order Simulator ***

Warmup Instructions: 50000000
Simulation Instructions: 200000000
Number of CPUs: 1
LLC sets: 2048
LLC ways: 16
Off-chip DRAM Size: 4096 MB Channels: 1 Width: 64-bit Data Rate: 6400 MT/s
argv[0]: ./ChampSim/Berti/bin/multiperspective_perceptron-no-vberti-no-no-no-no-no-lru-lru-lru-srrip-drrip-lru-lru-lru-1core-no
argv[1]: -warmup_instructions
argv[2]: 50000000
argv[3]: -simulation_instructions
argv[4]: 200000000
argv[5]: -traces
argv[6]: traces/spec2k17_ten/649.fotonik3d_s-1176B.champsimtrace.xz
CPU 0 runs traces/spec2k17_ten/649.fotonik3d_s-1176B.champsimtrace.xz
.xz
CPU 0 Multiperspective perceptron branch predictor
BTB has LRU replacement policy
ITLB has LRU replacement policy
DTLB has LRU replacement policy
STLB has LRU replacement policy
L1I has LRU replacement policy
History Sets: 8
History Ways: 16
BERTI Size: 16
BERTI Stride Size: 16
L1D has LRU replacement policy
Initialize SRRIP state for L2C
Initialize DRRIP state for LLC
Heartbeat CPU 0 instructions: 10000000 cycles: 2903008 heartbeat IPC: 3.4447 cumulative IPC: 3.4447 (Simulation time: 0 hr 4 min 47 sec) 
Heartbeat CPU 0 instructions: 20000002 cycles: 5805909 heartbeat IPC: 3.44483 cumulative IPC: 3.44477 (Simulation time: 0 hr 11 min 2 sec) 
Heartbeat CPU 0 instructions: 30000001 cycles: 8708815 heartbeat IPC: 3.44482 cumulative IPC: 3.44479 (Simulation time: 0 hr 13 min 39 sec) 
Heartbeat CPU 0 instructions: 40000003 cycles: 11611785 heartbeat IPC: 3.44475 cumulative IPC: 3.44478 (Simulation time: 0 hr 14 min 54 sec) 
Heartbeat CPU 0 instructions: 50000001 cycles: 14514734 heartbeat IPC: 3.44477 cumulative IPC: 3.44478 (Simulation time: 0 hr 16 min 22 sec) 

Warmup complete CPU 0 instructions: 50000001 cycles: 14514734 (Simulation time: 0 hr 16 min 22 sec) 

Heartbeat CPU 0 instructions: 60000003 cycles: 24479125 heartbeat IPC: 1.00357 cumulative IPC: 1.00357 (Simulation time: 0 hr 19 min 56 sec) 
Heartbeat CPU 0 instructions: 70000000 cycles: 34443088 heartbeat IPC: 1.00362 cumulative IPC: 1.0036 (Simulation time: 0 hr 25 min 39 sec) 
Heartbeat CPU 0 instructions: 80000001 cycles: 44408778 heartbeat IPC: 1.00344 cumulative IPC: 1.00354 (Simulation time: 0 hr 30 min 41 sec) 
Heartbeat CPU 0 instructions: 90000000 cycles: 54371673 heartbeat IPC: 1.00372 cumulative IPC: 1.00359 (Simulation time: 0 hr 35 min 0 sec) 
Heartbeat CPU 0 instructions: 100000000 cycles: 64337271 heartbeat IPC: 1.00345 cumulative IPC: 1.00356 (Simulation time: 0 hr 39 min 48 sec) 
Heartbeat CPU 0 instructions: 110000000 cycles: 74299780 heartbeat IPC: 1.00376 cumulative IPC: 1.0036 (Simulation time: 0 hr 43 min 33 sec) 
Heartbeat CPU 0 instructions: 120000001 cycles: 84264773 heartbeat IPC: 1.00351 cumulative IPC: 1.00358 (Simulation time: 0 hr 48 min 5 sec) 
Heartbeat CPU 0 instructions: 130000002 cycles: 94227881 heartbeat IPC: 1.0037 cumulative IPC: 1.0036 (Simulation time: 0 hr 51 min 32 sec) 
Heartbeat CPU 0 instructions: 140000003 cycles: 104194016 heartbeat IPC: 1.0034 cumulative IPC: 1.00358 (Simulation time: 0 hr 54 min 25 sec) 
Heartbeat CPU 0 instructions: 150000000 cycles: 114156495 heartbeat IPC: 1.00377 cumulative IPC: 1.0036 (Simulation time: 0 hr 57 min 33 sec) 
Heartbeat CPU 0 instructions: 160000000 cycles: 124123074 heartbeat IPC: 1.00335 cumulative IPC: 1.00357 (Simulation time: 1 hr 1 min 43 sec) 
Heartbeat CPU 0 instructions: 170000000 cycles: 134085065 heartbeat IPC: 1.00382 cumulative IPC: 1.00359 (Simulation time: 1 hr 5 min 46 sec) 
Heartbeat CPU 0 instructions: 180000001 cycles: 144047989 heartbeat IPC: 1.00372 cumulative IPC: 1.0036 (Simulation time: 1 hr 10 min 31 sec) 
Heartbeat CPU 0 instructions: 190000002 cycles: 154013418 heartbeat IPC: 1.00347 cumulative IPC: 1.00359 (Simulation time: 1 hr 13 min 43 sec) 
Heartbeat CPU 0 instructions: 200000003 cycles: 163975999 heartbeat IPC: 1.00376 cumulative IPC: 1.0036 (Simulation time: 1 hr 16 min 23 sec) 
Heartbeat CPU 0 instructions: 210000000 cycles: 173942208 heartbeat IPC: 1.00339 cumulative IPC: 1.00359 (Simulation time: 1 hr 19 min 28 sec) 
Heartbeat CPU 0 instructions: 220000000 cycles: 183906703 heartbeat IPC: 1.00356 cumulative IPC: 1.00359 (Simulation time: 1 hr 23 min 5 sec) 
Heartbeat CPU 0 instructions: 230000002 cycles: 193874076 heartbeat IPC: 1.00327 cumulative IPC: 1.00357 (Simulation time: 1 hr 26 min 58 sec) 
Heartbeat CPU 0 instructions: 240000000 cycles: 203837323 heartbeat IPC: 1.00369 cumulative IPC: 1.00358 (Simulation time: 1 hr 30 min 17 sec) 
Heartbeat CPU 0 instructions: 250000002 cycles: 213804796 heartbeat IPC: 1.00326 cumulative IPC: 1.00356 (Simulation time: 1 hr 33 min 38 sec) 
Finished CPU 0 instructions: 200000001 cycles: 199290062 cumulative IPC: 1.00356 (Simulation time: 1 hr 33 min 38 sec) 

ChampSim completed all CPUs

Region of Interest Statistics

CPU 0 cumulative IPC: 1.00356 instructions: 200000001 cycles: 199290062
ITLB TOTAL     ACCESS:   28069916  HIT:   28069916  MISS:          0  HIT %:        100  MISS %:          0   MPKI: 0
ITLB LOAD TRANSLATION ACCESS:   28069916  HIT:   28069916  MISS:          0  HIT %:        100  MISS %:          0   MPKI: 0
ITLB PREFETCH  REQUESTED:          0  ISSUED:          0  USEFUL:          0  USELESS:          0
ITLB USEFUL LOAD PREFETCHES:          0 PREFETCH ISSUED TO LOWER LEVEL:          0  ACCURACY: -nan
ITLB TIMELY PREFETCHES:          0 LATE PREFETCHES: 0 DROPPED PREFETCHES: 0
ITLB PREFETCHES SAME FILL-ORIGIN LEVEL: 0 DIFFERENT FILL-ORIGIN LEVEL: 0
ITLB AVERAGE MISS LATENCY: -nan cycles
ITLB RQ	ACCESS:   35091471	FORWARD:          0	MERGED:    7021556	TO_CACHE:   28069915

DTLB TOTAL     ACCESS:   32343249  HIT:   32296261  MISS:      46988  HIT %:    99.8547  MISS %:   0.145279   MPKI: 0.23494
DTLB LOAD TRANSLATION ACCESS:   32343249  HIT:   32296261  MISS:      46988  HIT %:    99.8547  MISS %:   0.145279   MPKI: 0.23494
DTLB PREFETCH  REQUESTED:          0  ISSUED:          0  USEFUL:          0  USELESS:          0
DTLB USEFUL LOAD PREFETCHES:          0 PREFETCH ISSUED TO LOWER LEVEL:          0  ACCURACY: -nan
DTLB TIMELY PREFETCHES:          0 LATE PREFETCHES: 0 DROPPED PREFETCHES: 0
DTLB PREFETCHES SAME FILL-ORIGIN LEVEL: 0 DIFFERENT FILL-ORIGIN LEVEL: 0
DTLB AVERAGE MISS LATENCY: 77.1588 cycles
DTLB RQ	ACCESS:   50220157	FORWARD:          0	MERGED:   17876821	TO_CACHE:   32343336

STLB TOTAL     ACCESS:    7232036  HIT:    7204590  MISS:      27446  HIT %:    99.6205  MISS %:   0.379506   MPKI: 0.13723
STLB LOAD TRANSLATION ACCESS:      46988  HIT:      19542  MISS:      27446  HIT %:    41.5893  MISS %:    58.4107   MPKI: 0.13723
STLB TRANSLATION FROM L1D PREFETCHER ACCESS:    7185048  HIT:    7185048  MISS:          0  HIT %:        100  MISS %:          0   MPKI: 0
STLB PREFETCH  REQUESTED:          0  ISSUED:          0  USEFUL:          0  USELESS:          0
STLB USEFUL LOAD PREFETCHES:          0 PREFETCH ISSUED TO LOWER LEVEL:          0  ACCURACY: -nan
STLB TIMELY PREFETCHES:          0 LATE PREFETCHES: 11660 DROPPED PREFETCHES: 4159263
STLB PREFETCHES SAME FILL-ORIGIN LEVEL: 0 DIFFERENT FILL-ORIGIN LEVEL: 0
STLB AVERAGE MISS LATENCY: 118.553 cycles
STLB RQ	ACCESS:   55716463	FORWARD:          0	MERGED:   44214841	TO_CACHE:   11501622

STLB Hit, L1D data hit: 0
STLB Hit, L2C data hit: 0
STLB Hit, LLC data hit: 0
STLB Hit, LLC data miss: 0
STLB STLB hints to L2: 0
L1D TOTAL     ACCESS:   79864575  HIT:   77209005  MISS:    2655570  HIT %:    96.6749  MISS %:    3.32509   MPKI: 13.2778
L1D LOAD      ACCESS:   36094499  HIT:   35672466  MISS:     422033  HIT %:    98.8308  MISS %:    1.16924   MPKI: 2.11016
L1D RFO       ACCESS:   14036743  HIT:   14033677  MISS:       3066  HIT %:    99.9782  MISS %:  0.0218427   MPKI: 0.01533
L1D PREFETCH  ACCESS:   29733333  HIT:   27502862  MISS:    2230471  HIT %:    92.4984  MISS %:    7.50158   MPKI: 11.1524
L1D PREFETCH  REQUESTED:  118396739  ISSUED:  112452872  USEFUL:    2221650  USELESS:       8841
L1D USEFUL LOAD PREFETCHES:    2221650 PREFETCH ISSUED TO LOWER LEVEL:   21320583  ACCURACY: 10.4202
L1D TIMELY PREFETCHES:    2221650 LATE PREFETCHES: 30444 DROPPED PREFETCHES: 6638589
L1D PREFETCHES SAME FILL-ORIGIN LEVEL: 2260916 DIFFERENT FILL-ORIGIN LEVEL: 19059667
L1D AVERAGE MISS LATENCY: 26.0069 cycles
L1D RQ	ACCESS:   70165654	FORWARD:          0	MERGED:   33985950	TO_CACHE:   36179059
L1D WQ	ACCESS:   14041098	FORWARD:        645	MERGED:          0	TO_CACHE:   14041098
L1D PQ	ACCESS:   56783397	FORWARD:          0	MERGED:    1113922	TO_CACHE:   55669475

L1D UNIQUE REGIONS ACCESSED: 0
L1D REGIONS CONFLICTS: 0
L1D Cross Page Prefetch Requests: 10656351
L1D Same Page Prefetch Requests: 60360790
L1D ROI Sum of L1D PQ occupancy: 1188979335
L1D PREFETCHES PUSHED FROM L2C: 0
L1I TOTAL     ACCESS:   35091472  HIT:   35091472  MISS:          0  HIT %:        100  MISS %:          0   MPKI: 0
L1I LOAD      ACCESS:   35091472  HIT:   35091472  MISS:          0  HIT %:        100  MISS %:          0   MPKI: 0
L1I PREFETCH  REQUESTED:          0  ISSUED:          0  USEFUL:          0  USELESS:          0
L1I USEFUL LOAD PREFETCHES:          0 PREFETCH ISSUED TO LOWER LEVEL:          0  ACCURACY: -nan
L1I TIMELY PREFETCHES:          0 LATE PREFETCHES: 0 DROPPED PREFETCHES: 0
L1I PREFETCHES SAME FILL-ORIGIN LEVEL: 0 DIFFERENT FILL-ORIGIN LEVEL: 0
L1I AVERAGE MISS LATENCY: -nan cycles
L1I RQ	ACCESS:   45627076	FORWARD:          0	MERGED:   10535605	TO_CACHE:   35091471

BTB TOTAL     ACCESS:    3509176  HIT:    3509167  MISS:          9  HIT %:    99.9997  MISS %: 0.00025647   MPKI: 4.5e-05
BTB BRANCH_DIRECT_JUMP	ACCESS:        876  HIT:        874  MISS:          2
BTB BRANCH_INDIRECT	ACCESS:          0  HIT:          0  MISS:          0
BTB BRANCH_CONDITIONAL	ACCESS:    3506548  HIT:    3506545  MISS:          3
BTB BRANCH_DIRECT_CALL	ACCESS:        876  HIT:        874  MISS:          2
BTB BRANCH_INDIRECT_CALL	ACCESS:          0  HIT:          0  MISS:          0
BTB BRANCH_RETURN	ACCESS:        876  HIT:        874  MISS:          2
BTB BRANCH_OTHER ACCESS:          0  HIT:          0  MISS:          0

L2C TOTAL     ACCESS:   25197607  HIT:   23369147  MISS:    1828460  HIT %:    92.7435  MISS %:    7.25648   MPKI: 9.1423
L2C LOAD      ACCESS:     391589  HIT:     346674  MISS:      44915  HIT %:    88.5301  MISS %:    11.4699   MPKI: 0.224575
L2C DATA LOAD MPKI: 0.224575
L2C INSTRUCTION LOAD MPKI: 0
L2C RFO       ACCESS:       3066  HIT:       3052  MISS:         14  HIT %:    99.5434  MISS %:   0.456621   MPKI: 7e-05
L2C PREFETCH  ACCESS:   18846286  HIT:   17067347  MISS:    1778939  HIT %:    90.5608  MISS %:     9.4392   MPKI: 8.89469
L2C DATA PREFETCH MPKI: 8.89469
L2C INSTRUCTION PREFETCH MPKI: 0
L2C WRITEBACK ACCESS:    1756964  HIT:    1756010  MISS:        954  HIT %:    99.9457  MISS %:  0.0542982   MPKI: 0.00477
L2C LOAD TRANSLATION ACCESS:      27454  HIT:      27396  MISS:         58  HIT %:    99.7887  MISS %:   0.211262   MPKI: 0.00029
L2C TRANSLATION FROM L1D PREFETCHER ACCESS:    4172248  HIT:    4168668  MISS:       3580  HIT %:    99.9142  MISS %:  0.0858051   MPKI: 0.0179
L2C PREFETCH  REQUESTED:          0  ISSUED:          0  USEFUL:     347803  USELESS:    1435831
L2C USEFUL LOAD PREFETCHES:     347803 PREFETCH ISSUED TO LOWER LEVEL:    1784902  ACCURACY: 19.4858
L2C TIMELY PREFETCHES:     347803 LATE PREFETCHES: 5960 DROPPED PREFETCHES: 0
L2C PREFETCHES SAME FILL-ORIGIN LEVEL: 1651474 DIFFERENT FILL-ORIGIN LEVEL: 0
L2C AVERAGE MISS LATENCY: 188.589 cycles
L2C RQ	ACCESS:    4594358	FORWARD:          0	MERGED:          0	TO_CACHE:    4594358
L2C WQ	ACCESS:    1756964	FORWARD:          0	MERGED:          0	TO_CACHE:    1756964
L2C PQ	ACCESS:   21320583	FORWARD:          0	MERGED:        166	TO_CACHE:   21320417

L2C Instructions Evicting Data 0
L2C Translations Evicting Data 3630
L2C Data Evicting Data 1820245
L2C Instructions Evicting Instructions 0
L2C Translations Evicting Instructions 0
L2C Data Evicting Instructions 0
L2C Instructions Evicting Translations 0
L2C Translations Evicting Translations 8
L2C Data Evicting Translations 3623
L2C Dense regions hint from L2: 0
PSCL5 TOTAL     ACCESS:    4198371  HIT:    4198371  MISS:          0  HIT %:        100  MISS %:          0   MPKI: 0
PSCL5 LOAD TRANSLATION ACCESS:      27446  HIT:      27446  MISS:          0  HIT %:        100  MISS %:          0   MPKI: 0
PSCL5 TRANSLATION FROM L1D PREFETCHER ACCESS:    4170925  HIT:    4170925  MISS:          0  HIT %:        100  MISS %:          0   MPKI: 0
PSCL5 PREFETCH  REQUESTED:          0  ISSUED:          0  USEFUL:          0  USELESS:          0
PSCL5 USEFUL LOAD PREFETCHES:          0 PREFETCH ISSUED TO LOWER LEVEL:          0  ACCURACY: -nan
PSCL5 TIMELY PREFETCHES:          0 LATE PREFETCHES: 0 DROPPED PREFETCHES: 0
PSCL5 PREFETCHES SAME FILL-ORIGIN LEVEL: 0 DIFFERENT FILL-ORIGIN LEVEL: 0

PSCL4 TOTAL     ACCESS:    4198371  HIT:    4198371  MISS:          0  HIT %:        100  MISS %:          0   MPKI: 0
PSCL4 LOAD TRANSLATION ACCESS:      27446  HIT:      27446  MISS:          0  HIT %:        100  MISS %:          0   MPKI: 0
PSCL4 TRANSLATION FROM L1D PREFETCHER ACCESS:    4170925  HIT:    4170925  MISS:          0  HIT %:        100  MISS %:          0   MPKI: 0
PSCL4 PREFETCH  REQUESTED:          0  ISSUED:          0  USEFUL:          0  USELESS:          0
PSCL4 USEFUL LOAD PREFETCHES:          0 PREFETCH ISSUED TO LOWER LEVEL:          0  ACCURACY: -nan
PSCL4 TIMELY PREFETCHES:          0 LATE PREFETCHES: 0 DROPPED PREFETCHES: 0
PSCL4 PREFETCHES SAME FILL-ORIGIN LEVEL: 0 DIFFERENT FILL-ORIGIN LEVEL: 0

PSCL3 TOTAL     ACCESS:    4187656  HIT:    4187651  MISS:          5  HIT %:    99.9999  MISS %: 0.000119399   MPKI: 2.5e-05
PSCL3 LOAD TRANSLATION ACCESS:      27383  HIT:      27378  MISS:          5  HIT %:    99.9817  MISS %:  0.0182595   MPKI: 2.5e-05
PSCL3 TRANSLATION FROM L1D PREFETCHER ACCESS:    4160273  HIT:    4160273  MISS:          0  HIT %:        100  MISS %:          0   MPKI: 0
PSCL3 PREFETCH  REQUESTED:          0  ISSUED:          0  USEFUL:          0  USELESS:          0
PSCL3 USEFUL LOAD PREFETCHES:          0 PREFETCH ISSUED TO LOWER LEVEL:          0  ACCURACY: -nan
PSCL3 TIMELY PREFETCHES:          0 LATE PREFETCHES: 0 DROPPED PREFETCHES: 0
PSCL3 PREFETCHES SAME FILL-ORIGIN LEVEL: 0 DIFFERENT FILL-ORIGIN LEVEL: 0

PSCL2 TOTAL     ACCESS:    4177769  HIT:    4177676  MISS:         93  HIT %:    99.9978  MISS %: 0.00222607   MPKI: 0.000465
PSCL2 LOAD TRANSLATION ACCESS:      27446  HIT:      27353  MISS:         93  HIT %:    99.6612  MISS %:   0.338847   MPKI: 0.000465
PSCL2 TRANSLATION FROM L1D PREFETCHER ACCESS:    4150323  HIT:    4150323  MISS:          0  HIT %:        100  MISS %:          0   MPKI: 0
PSCL2 PREFETCH  REQUESTED:          0  ISSUED:          0  USEFUL:          0  USELESS:          0
PSCL2 USEFUL LOAD PREFETCHES:          0 PREFETCH ISSUED TO LOWER LEVEL:          0  ACCURACY: -nan
PSCL2 TIMELY PREFETCHES:          0 LATE PREFETCHES: 0 DROPPED PREFETCHES: 0
PSCL2 PREFETCHES SAME FILL-ORIGIN LEVEL: 0 DIFFERENT FILL-ORIGIN LEVEL: 0

LLC TOTAL     ACCESS:    3580667  HIT:    1793659  MISS:    1787008  HIT %:    50.0929  MISS %:    49.9071   MPKI: 8.93504
LLC LOAD      ACCESS:      38955  HIT:      10692  MISS:      28263  HIT %:    27.4471  MISS %:    72.5529   MPKI: 0.141315
LLC RFO       ACCESS:         14  HIT:         14  MISS:          0  HIT %:        100  MISS %:          0   MPKI: 0
LLC PREFETCH  ACCESS:    1784899  HIT:      56265  MISS:    1728634  HIT %:    3.15228  MISS %:    96.8477   MPKI: 8.64317
LLC WRITEBACK ACCESS:    1753161  HIT:    1726611  MISS:      26550  HIT %:    98.4856  MISS %:    1.51441   MPKI: 0.13275
LLC LOAD TRANSLATION ACCESS:         58  HIT:          2  MISS:         56  HIT %:    3.44828  MISS %:    96.5517   MPKI: 0.00028
LLC TRANSLATION FROM L1D PREFETCHER ACCESS:       3580  HIT:         75  MISS:       3505  HIT %:    2.09497  MISS %:     97.905   MPKI: 0.017525
LLC PREFETCH  REQUESTED:          0  ISSUED:          0  USEFUL:        401  USELESS:    1731645
LLC USEFUL LOAD PREFETCHES:        401 PREFETCH ISSUED TO LOWER LEVEL:    1728637  ACCURACY: 0.0231975
LLC TIMELY PREFETCHES:        401 LATE PREFETCHES: 0 DROPPED PREFETCHES: 0
LLC PREFETCHES SAME FILL-ORIGIN LEVEL: 0 DIFFERENT FILL-ORIGIN LEVEL: 0
LLC AVERAGE MISS LATENCY: 162.48 cycles
LLC RQ	ACCESS:      42607	FORWARD:          0	MERGED:          0	TO_CACHE:      42607
LLC WQ	ACCESS:    1753160	FORWARD:          0	MERGED:          0	TO_CACHE:    1753160
LLC PQ	ACCESS:    1784902	FORWARD:          0	MERGED:          0	TO_CACHE:    1784902

LLC Dense regions hint to LLC: 0

RAW hits: 3460
Loads Generated: 70169114
Loads sent to L1D: 70165654
Stores Generated: 14041092
Stores sent to L1D: 14041098
Major fault: 0 Minor fault: 34498
Allocated PAGES: 34498

DRAM Statistics
 CHANNEL 0
 RQ ROW_BUFFER_HIT:     333843  ROW_BUFFER_MISS:    1426614
 DBUS_CONGESTED:       1790
 WQ ROW_BUFFER_HIT:     674423  ROW_BUFFER_MISS:    1078294  FULL:          0

 AVG_CONGESTED_CYCLE: 5
 All warmup complete: 2
Channel 0 Bank busy for read cycles: 0
Channel 0 Bank busy for write cycles: 0
Channel 0
Rank 0
0banks busy for read cycles: 38825679
0banks busy for write cycles: 64084
1banks busy for read cycles: 56173960
1banks busy for write cycles: 3707359
2banks busy for read cycles: 32819163
2banks busy for write cycles: 2790475
3banks busy for read cycles: 11374262
3banks busy for write cycles: 2459227
4banks busy for read cycles: 5739740
4banks busy for write cycles: 2358911
5banks busy for read cycles: 2562532
5banks busy for write cycles: 2540894
6banks busy for read cycles: 1536045
6banks busy for write cycles: 3220849
7banks busy for read cycles: 1325624
7banks busy for write cycles: 4781003
8banks busy for read cycles: 2563780
8banks busy for write cycles: 24446476

CPU 0 Branch Prediction Accuracy: 100% MPKI: 0 Average ROB Occupancy at Mispredict: -nan
Branch types
NOT_BRANCH: 196487543 98.2438%
BRANCH_DIRECT_JUMP: 876 0.000438%
BRANCH_INDIRECT: 0 0%
BRANCH_CONDITIONAL: 3509614 1.75481%
BRANCH_DIRECT_CALL: 876 0.000438%
BRANCH_INDIRECT_CALL: 0 0%
BRANCH_RETURN: 876 0.000438%
BRANCH_OTHER: 0 0%

DRAM PAGES: 1048576
Allocated PAGES: 34498
