526208 bits of metadata so far, 405638 left out of 526336 total budget
table size is 13521 bits, 2253 entries for 5 bit, 1931 entries for 6 bit
526208 total bits (64.23KB)

*** ChampSim Multicore Out-of-Order Simulator ***

Warmup Instructions: 50000000
Simulation Instructions: 200000000
Number of CPUs: 1
LLC sets: 2048
LLC ways: 16
Off-chip DRAM Size: 4096 MB Channels: 1 Width: 64-bit Data Rate: 6400 MT/s
argv[0]: ./ChampSim/Berti/bin/multiperspective_perceptron-no-vberti-no-no-no-no-no-lru-lru-lru-srrip-drrip-lru-lru-lru-1core-no
argv[1]: -warmup_instructions
argv[2]: 50000000
argv[3]: -simulation_instructions
argv[4]: 200000000
argv[5]: -traces
argv[6]: traces/spec2k17_ten/649.fotonik3d_s-7084B.champsimtrace.xz
CPU 0 runs traces/spec2k17_ten/649.fotonik3d_s-7084B.champsimtrace.xz
.xz
CPU 0 Multiperspective perceptron branch predictor
BTB has LRU replacement policy
ITLB has LRU replacement policy
DTLB has LRU replacement policy
STLB has LRU replacement policy
L1I has LRU replacement policy
History Sets: 8
History Ways: 16
BERTI Size: 16
BERTI Stride Size: 16
L1D has LRU replacement policy
Initialize SRRIP state for L2C
Initialize DRRIP state for LLC
Heartbeat CPU 0 instructions: 10000001 cycles: 2908441 heartbeat IPC: 3.43827 cumulative IPC: 3.43827 (Simulation time: 0 hr 5 min 43 sec) 
Heartbeat CPU 0 instructions: 20000001 cycles: 5816110 heartbeat IPC: 3.43918 cumulative IPC: 3.43872 (Simulation time: 0 hr 10 min 54 sec) 
Heartbeat CPU 0 instructions: 30000001 cycles: 8726163 heartbeat IPC: 3.43636 cumulative IPC: 3.43794 (Simulation time: 0 hr 18 min 0 sec) 
Heartbeat CPU 0 instructions: 40000003 cycles: 11641050 heartbeat IPC: 3.43067 cumulative IPC: 3.43612 (Simulation time: 0 hr 22 min 35 sec) 
Heartbeat CPU 0 instructions: 50000002 cycles: 14563465 heartbeat IPC: 3.42183 cumulative IPC: 3.43325 (Simulation time: 0 hr 25 min 57 sec) 

Warmup complete CPU 0 instructions: 50000002 cycles: 14563465 (Simulation time: 0 hr 25 min 57 sec) 

Heartbeat CPU 0 instructions: 60000002 cycles: 24672670 heartbeat IPC: 0.989197 cumulative IPC: 0.989197 (Simulation time: 0 hr 29 min 38 sec) 
Heartbeat CPU 0 instructions: 70000002 cycles: 34780087 heartbeat IPC: 0.989372 cumulative IPC: 0.989285 (Simulation time: 0 hr 34 min 38 sec) 
Heartbeat CPU 0 instructions: 80000003 cycles: 44884939 heartbeat IPC: 0.989624 cumulative IPC: 0.989398 (Simulation time: 0 hr 39 min 58 sec) 
Heartbeat CPU 0 instructions: 90000001 cycles: 54990238 heartbeat IPC: 0.98958 cumulative IPC: 0.989443 (Simulation time: 0 hr 45 min 36 sec) 
Heartbeat CPU 0 instructions: 100000001 cycles: 65089137 heartbeat IPC: 0.990207 cumulative IPC: 0.989596 (Simulation time: 0 hr 51 min 11 sec) 
Heartbeat CPU 0 instructions: 110000000 cycles: 75190242 heartbeat IPC: 0.989991 cumulative IPC: 0.989662 (Simulation time: 0 hr 56 min 25 sec) 
Heartbeat CPU 0 instructions: 120000000 cycles: 85292393 heartbeat IPC: 0.989888 cumulative IPC: 0.989694 (Simulation time: 1 hr 0 min 15 sec) 
Heartbeat CPU 0 instructions: 130000003 cycles: 95385152 heartbeat IPC: 0.99081 cumulative IPC: 0.989833 (Simulation time: 1 hr 4 min 11 sec) 
Heartbeat CPU 0 instructions: 140000002 cycles: 105487292 heartbeat IPC: 0.989889 cumulative IPC: 0.98984 (Simulation time: 1 hr 8 min 28 sec) 
Heartbeat CPU 0 instructions: 150000001 cycles: 115588180 heartbeat IPC: 0.990012 cumulative IPC: 0.989857 (Simulation time: 1 hr 13 min 33 sec) 
Heartbeat CPU 0 instructions: 160000001 cycles: 125696274 heartbeat IPC: 0.989306 cumulative IPC: 0.989807 (Simulation time: 1 hr 18 min 39 sec) 
Heartbeat CPU 0 instructions: 170000000 cycles: 135802084 heartbeat IPC: 0.98953 cumulative IPC: 0.989784 (Simulation time: 1 hr 23 min 27 sec) 
Heartbeat CPU 0 instructions: 180000001 cycles: 145903218 heartbeat IPC: 0.989988 cumulative IPC: 0.989799 (Simulation time: 1 hr 27 min 29 sec) 
Heartbeat CPU 0 instructions: 190000001 cycles: 156006078 heartbeat IPC: 0.989819 cumulative IPC: 0.989801 (Simulation time: 1 hr 31 min 51 sec) 
Heartbeat CPU 0 instructions: 200000001 cycles: 166113094 heartbeat IPC: 0.989412 cumulative IPC: 0.989775 (Simulation time: 1 hr 35 min 40 sec) 
Heartbeat CPU 0 instructions: 210000003 cycles: 176224484 heartbeat IPC: 0.988984 cumulative IPC: 0.989725 (Simulation time: 1 hr 39 min 6 sec) 
Heartbeat CPU 0 instructions: 220000000 cycles: 186330706 heartbeat IPC: 0.989489 cumulative IPC: 0.989711 (Simulation time: 1 hr 41 min 24 sec) 
Heartbeat CPU 0 instructions: 230000001 cycles: 196431289 heartbeat IPC: 0.990042 cumulative IPC: 0.98973 (Simulation time: 1 hr 44 min 20 sec) 
Heartbeat CPU 0 instructions: 240000002 cycles: 206533063 heartbeat IPC: 0.989925 cumulative IPC: 0.98974 (Simulation time: 1 hr 46 min 38 sec) 
Heartbeat CPU 0 instructions: 250000002 cycles: 216630572 heartbeat IPC: 0.990343 cumulative IPC: 0.98977 (Simulation time: 1 hr 48 min 22 sec) 
Finished CPU 0 instructions: 200000000 cycles: 202067107 cumulative IPC: 0.98977 (Simulation time: 1 hr 48 min 22 sec) 

ChampSim completed all CPUs

Region of Interest Statistics

CPU 0 cumulative IPC: 0.98977 instructions: 200000000 cycles: 202067107
ITLB TOTAL     ACCESS:   24342498  HIT:   24342498  MISS:          0  HIT %:        100  MISS %:          0   MPKI: 0
ITLB LOAD TRANSLATION ACCESS:   24342498  HIT:   24342498  MISS:          0  HIT %:        100  MISS %:          0   MPKI: 0
ITLB PREFETCH  REQUESTED:          0  ISSUED:          0  USEFUL:          0  USELESS:          0
ITLB USEFUL LOAD PREFETCHES:          0 PREFETCH ISSUED TO LOWER LEVEL:          0  ACCURACY: -nan
ITLB TIMELY PREFETCHES:          0 LATE PREFETCHES: 0 DROPPED PREFETCHES: 0
ITLB PREFETCHES SAME FILL-ORIGIN LEVEL: 0 DIFFERENT FILL-ORIGIN LEVEL: 0
ITLB AVERAGE MISS LATENCY: -nan cycles
ITLB RQ	ACCESS:   29752970	FORWARD:          0	MERGED:    5410472	TO_CACHE:   24342498

DTLB TOTAL     ACCESS:   53520083  HIT:   53391238  MISS:     128845  HIT %:    99.7593  MISS %:   0.240741   MPKI: 0.644225
DTLB LOAD TRANSLATION ACCESS:   53520083  HIT:   53391238  MISS:     128845  HIT %:    99.7593  MISS %:   0.240741   MPKI: 0.644225
DTLB PREFETCH  REQUESTED:          0  ISSUED:          0  USEFUL:          0  USELESS:          0
DTLB USEFUL LOAD PREFETCHES:          0 PREFETCH ISSUED TO LOWER LEVEL:          0  ACCURACY: -nan
DTLB TIMELY PREFETCHES:          0 LATE PREFETCHES: 0 DROPPED PREFETCHES: 0
DTLB PREFETCHES SAME FILL-ORIGIN LEVEL: 0 DIFFERENT FILL-ORIGIN LEVEL: 0
DTLB AVERAGE MISS LATENCY: 49.2383 cycles
DTLB RQ	ACCESS:   58711805	FORWARD:          0	MERGED:    5189545	TO_CACHE:   53522260

STLB TOTAL     ACCESS:   13131640  HIT:   13077026  MISS:      54614  HIT %:    99.5841  MISS %:   0.415896   MPKI: 0.27307
STLB LOAD TRANSLATION ACCESS:     128845  HIT:      85867  MISS:      42978  HIT %:    66.6436  MISS %:    33.3564   MPKI: 0.21489
STLB TRANSLATION FROM L1D PREFETCHER ACCESS:   13002795  HIT:   12991159  MISS:      11636  HIT %:    99.9105  MISS %:  0.0894885   MPKI: 0.05818
STLB PREFETCH  REQUESTED:          0  ISSUED:          0  USEFUL:      11636  USELESS:          0
STLB USEFUL LOAD PREFETCHES:      11636 PREFETCH ISSUED TO LOWER LEVEL:          0  ACCURACY: inf
STLB TIMELY PREFETCHES:      11636 LATE PREFETCHES: 130 DROPPED PREFETCHES: 1878313
STLB PREFETCHES SAME FILL-ORIGIN LEVEL: 0 DIFFERENT FILL-ORIGIN LEVEL: 0
STLB AVERAGE MISS LATENCY: 105.677 cycles
STLB RQ	ACCESS:   74846008	FORWARD:          0	MERGED:   59835401	TO_CACHE:   15010607

STLB Hit, L1D data hit: 0
STLB Hit, L2C data hit: 0
STLB Hit, LLC data hit: 0
STLB Hit, LLC data miss: 0
STLB STLB hints to L2: 0
L1D TOTAL     ACCESS:  122143390  HIT:  118647633  MISS:    3495757  HIT %:     97.138  MISS %:    2.86201   MPKI: 17.4788
L1D LOAD      ACCESS:   48861000  HIT:   48802338  MISS:      58662  HIT %:    99.8799  MISS %:   0.120059   MPKI: 0.29331
L1D RFO       ACCESS:    9834440  HIT:    9834440  MISS:          0  HIT %:        100  MISS %:          0   MPKI: 0
L1D PREFETCH  ACCESS:   63447950  HIT:   60010855  MISS:    3437095  HIT %:    94.5828  MISS %:    5.41719   MPKI: 17.1855
L1D PREFETCH  REQUESTED:  173322131  ISSUED:  149455391  USEFUL:    3217485  USELESS:     219632
L1D USEFUL LOAD PREFETCHES:    3217485 PREFETCH ISSUED TO LOWER LEVEL:    8519410  ACCURACY: 37.7665
L1D TIMELY PREFETCHES:    3217485 LATE PREFETCHES: 3884 DROPPED PREFETCHES: 4498657
L1D PREFETCHES SAME FILL-ORIGIN LEVEL: 3440979 DIFFERENT FILL-ORIGIN LEVEL: 5078431
L1D AVERAGE MISS LATENCY: 180.156 cycles
L1D RQ	ACCESS:   70409407	FORWARD:          0	MERGED:   21501964	TO_CACHE:   48877363
L1D WQ	ACCESS:    9834442	FORWARD:      30080	MERGED:          0	TO_CACHE:    9834442
L1D PQ	ACCESS:   74738228	FORWARD:          0	MERGED:      21065	TO_CACHE:   74717163

L1D UNIQUE REGIONS ACCESSED: 0
L1D REGIONS CONFLICTS: 0
L1D Cross Page Prefetch Requests: 6308544
L1D Same Page Prefetch Requests: 81703455
L1D ROI Sum of L1D PQ occupancy: 1377636287
L1D PREFETCHES PUSHED FROM L2C: 0
L1I TOTAL     ACCESS:   29752969  HIT:   29752969  MISS:          0  HIT %:        100  MISS %:          0   MPKI: 0
L1I LOAD      ACCESS:   29752969  HIT:   29752969  MISS:          0  HIT %:        100  MISS %:          0   MPKI: 0
L1I PREFETCH  REQUESTED:          0  ISSUED:          0  USEFUL:          0  USELESS:          0
L1I USEFUL LOAD PREFETCHES:          0 PREFETCH ISSUED TO LOWER LEVEL:          0  ACCURACY: -nan
L1I TIMELY PREFETCHES:          0 LATE PREFETCHES: 0 DROPPED PREFETCHES: 0
L1I PREFETCHES SAME FILL-ORIGIN LEVEL: 0 DIFFERENT FILL-ORIGIN LEVEL: 0
L1I AVERAGE MISS LATENCY: -nan cycles
L1I RQ	ACCESS:   43307603	FORWARD:          0	MERGED:   13554633	TO_CACHE:   29752970

BTB TOTAL     ACCESS:    1347104  HIT:    1347101  MISS:          3  HIT %:    99.9998  MISS %:  0.0002227   MPKI: 1.5e-05
BTB BRANCH_DIRECT_JUMP	ACCESS:          0  HIT:          0  MISS:          0
BTB BRANCH_INDIRECT	ACCESS:          0  HIT:          0  MISS:          0
BTB BRANCH_CONDITIONAL	ACCESS:    1347104  HIT:    1347101  MISS:          3
BTB BRANCH_DIRECT_CALL	ACCESS:          0  HIT:          0  MISS:          0
BTB BRANCH_INDIRECT_CALL	ACCESS:          0  HIT:          0  MISS:          0
BTB BRANCH_RETURN	ACCESS:          0  HIT:          0  MISS:          0
BTB BRANCH_OTHER ACCESS:          0  HIT:          0  MISS:          0

L2C TOTAL     ACCESS:   10886436  HIT:    7383239  MISS:    3503197  HIT %:    67.8205  MISS %:    32.1795   MPKI: 17.516
L2C LOAD      ACCESS:      54778  HIT:       4678  MISS:      50100  HIT %:    8.53992  MISS %:    91.4601   MPKI: 0.2505
L2C DATA LOAD MPKI: 0.2505
L2C INSTRUCTION LOAD MPKI: 0
L2C PREFETCH  ACCESS:    7860097  HIT:    4415171  MISS:    3444926  HIT %:     56.172  MISS %:     43.828   MPKI: 17.2246
L2C DATA PREFETCH MPKI: 17.2246
L2C INSTRUCTION PREFETCH MPKI: 0
L2C WRITEBACK ACCESS:    1038499  HIT:    1037421  MISS:       1078  HIT %:    99.8962  MISS %:   0.103804   MPKI: 0.00539
L2C LOAD TRANSLATION ACCESS:      42982  HIT:      42843  MISS:        139  HIT %:    99.6766  MISS %:   0.323391   MPKI: 0.000695
L2C TRANSLATION FROM L1D PREFETCHER ACCESS:    1890080  HIT:    1883126  MISS:       6954  HIT %:    99.6321  MISS %:   0.367921   MPKI: 0.03477
L2C PREFETCH  REQUESTED:          0  ISSUED:          0  USEFUL:      11140  USELESS:    3440721
L2C USEFUL LOAD PREFETCHES:      11140 PREFETCH ISSUED TO LOWER LEVEL:    3445229  ACCURACY: 0.323346
L2C TIMELY PREFETCHES:      11140 LATE PREFETCHES: 302 DROPPED PREFETCHES: 0
L2C PREFETCHES SAME FILL-ORIGIN LEVEL: 945947 DIFFERENT FILL-ORIGIN LEVEL: 0
L2C AVERAGE MISS LATENCY: 222.403 cycles
L2C RQ	ACCESS:    1987841	FORWARD:          0	MERGED:          0	TO_CACHE:    1987841
L2C WQ	ACCESS:    1038499	FORWARD:          0	MERGED:          0	TO_CACHE:    1038499
L2C PQ	ACCESS:    8518549	FORWARD:          0	MERGED:         14	TO_CACHE:    8518535

L2C Instructions Evicting Data 0
L2C Translations Evicting Data 7093
L2C Data Evicting Data 3487937
L2C Instructions Evicting Instructions 0
L2C Translations Evicting Instructions 0
L2C Data Evicting Instructions 0
L2C Instructions Evicting Translations 0
L2C Translations Evicting Translations 0
L2C Data Evicting Translations 7089
L2C Dense regions hint from L2: 0
PSCL5 TOTAL     ACCESS:    1933058  HIT:    1933058  MISS:          0  HIT %:        100  MISS %:          0   MPKI: 0
PSCL5 LOAD TRANSLATION ACCESS:      42977  HIT:      42977  MISS:          0  HIT %:        100  MISS %:          0   MPKI: 0
PSCL5 TRANSLATION FROM L1D PREFETCHER ACCESS:    1890081  HIT:    1890081  MISS:          0  HIT %:        100  MISS %:          0   MPKI: 0
PSCL5 PREFETCH  REQUESTED:          0  ISSUED:          0  USEFUL:          0  USELESS:          0
PSCL5 USEFUL LOAD PREFETCHES:          0 PREFETCH ISSUED TO LOWER LEVEL:          0  ACCURACY: -nan
PSCL5 TIMELY PREFETCHES:          0 LATE PREFETCHES: 0 DROPPED PREFETCHES: 0
PSCL5 PREFETCHES SAME FILL-ORIGIN LEVEL: 0 DIFFERENT FILL-ORIGIN LEVEL: 0

PSCL4 TOTAL     ACCESS:    1933058  HIT:    1933058  MISS:          0  HIT %:        100  MISS %:          0   MPKI: 0
PSCL4 LOAD TRANSLATION ACCESS:      42977  HIT:      42977  MISS:          0  HIT %:        100  MISS %:          0   MPKI: 0
PSCL4 TRANSLATION FROM L1D PREFETCHER ACCESS:    1890081  HIT:    1890081  MISS:          0  HIT %:        100  MISS %:          0   MPKI: 0
PSCL4 PREFETCH  REQUESTED:          0  ISSUED:          0  USEFUL:          0  USELESS:          0
PSCL4 USEFUL LOAD PREFETCHES:          0 PREFETCH ISSUED TO LOWER LEVEL:          0  ACCURACY: -nan
PSCL4 TIMELY PREFETCHES:          0 LATE PREFETCHES: 0 DROPPED PREFETCHES: 0
PSCL4 PREFETCHES SAME FILL-ORIGIN LEVEL: 0 DIFFERENT FILL-ORIGIN LEVEL: 0

PSCL3 TOTAL     ACCESS:    1933058  HIT:    1933058  MISS:          0  HIT %:        100  MISS %:          0   MPKI: 0
PSCL3 LOAD TRANSLATION ACCESS:      42977  HIT:      42977  MISS:          0  HIT %:        100  MISS %:          0   MPKI: 0
PSCL3 TRANSLATION FROM L1D PREFETCHER ACCESS:    1890081  HIT:    1890081  MISS:          0  HIT %:        100  MISS %:          0   MPKI: 0
PSCL3 PREFETCH  REQUESTED:          0  ISSUED:          0  USEFUL:          0  USELESS:          0
PSCL3 USEFUL LOAD PREFETCHES:          0 PREFETCH ISSUED TO LOWER LEVEL:          0  ACCURACY: -nan
PSCL3 TIMELY PREFETCHES:          0 LATE PREFETCHES: 0 DROPPED PREFETCHES: 0
PSCL3 PREFETCHES SAME FILL-ORIGIN LEVEL: 0 DIFFERENT FILL-ORIGIN LEVEL: 0

PSCL2 TOTAL     ACCESS:    1924540  HIT:    1924450  MISS:         90  HIT %:    99.9953  MISS %: 0.00467644   MPKI: 0.00045
PSCL2 LOAD TRANSLATION ACCESS:      42977  HIT:      42887  MISS:         90  HIT %:    99.7906  MISS %:   0.209414   MPKI: 0.00045
PSCL2 TRANSLATION FROM L1D PREFETCHER ACCESS:    1881563  HIT:    1881563  MISS:          0  HIT %:        100  MISS %:          0   MPKI: 0
PSCL2 PREFETCH  REQUESTED:          0  ISSUED:          0  USEFUL:          0  USELESS:          0
PSCL2 USEFUL LOAD PREFETCHES:          0 PREFETCH ISSUED TO LOWER LEVEL:          0  ACCURACY: -nan
PSCL2 TIMELY PREFETCHES:          0 LATE PREFETCHES: 0 DROPPED PREFETCHES: 0
PSCL2 PREFETCHES SAME FILL-ORIGIN LEVEL: 0 DIFFERENT FILL-ORIGIN LEVEL: 0

LLC TOTAL     ACCESS:    4540918  HIT:    1035658  MISS:    3505260  HIT %:    22.8072  MISS %:    77.1928   MPKI: 17.5263
LLC LOAD      ACCESS:      49798  HIT:        143  MISS:      49655  HIT %:    0.28716  MISS %:    99.7128   MPKI: 0.248275
LLC PREFETCH  ACCESS:    3445228  HIT:      12464  MISS:    3432764  HIT %:   0.361776  MISS %:    99.6382   MPKI: 17.1638
LLC WRITEBACK ACCESS:    1038799  HIT:    1022998  MISS:      15801  HIT %:    98.4789  MISS %:    1.52108   MPKI: 0.079005
LLC LOAD TRANSLATION ACCESS:        139  HIT:          7  MISS:        132  HIT %:    5.03597  MISS %:     94.964   MPKI: 0.00066
LLC TRANSLATION FROM L1D PREFETCHER ACCESS:       6954  HIT:         46  MISS:       6908  HIT %:    0.66149  MISS %:    99.3385   MPKI: 0.03454
LLC PREFETCH  REQUESTED:          0  ISSUED:          0  USEFUL:         47  USELESS:    3439518
LLC USEFUL LOAD PREFETCHES:         47 PREFETCH ISSUED TO LOWER LEVEL:    3432765  ACCURACY: 0.00136916
LLC TIMELY PREFETCHES:         47 LATE PREFETCHES: 0 DROPPED PREFETCHES: 0
LLC PREFETCHES SAME FILL-ORIGIN LEVEL: 0 DIFFERENT FILL-ORIGIN LEVEL: 0
LLC AVERAGE MISS LATENCY: 191.363 cycles
LLC RQ	ACCESS:      56891	FORWARD:          0	MERGED:          0	TO_CACHE:      56891
LLC WQ	ACCESS:    1038799	FORWARD:          0	MERGED:          0	TO_CACHE:    1038799
LLC PQ	ACCESS:    3445229	FORWARD:          0	MERGED:          0	TO_CACHE:    3445229

LLC Dense regions hint to LLC: 0

RAW hits: 336389
Loads Generated: 70745795
Loads sent to L1D: 70409407
Stores Generated: 9834441
Stores sent to L1D: 9834442
Major fault: 0 Minor fault: 54759
Allocated PAGES: 54759

DRAM Statistics
 CHANNEL 0
 RQ ROW_BUFFER_HIT:     865908  ROW_BUFFER_MISS:    2623551
 DBUS_CONGESTED:       1789
 WQ ROW_BUFFER_HIT:     312052  ROW_BUFFER_MISS:     726880  FULL:          0

 AVG_CONGESTED_CYCLE: 5
 All warmup complete: 2
Channel 0 Bank busy for read cycles: 0
Channel 0 Bank busy for write cycles: 0
Channel 0
Rank 0
0banks busy for read cycles: 423542
0banks busy for write cycles: 226
1banks busy for read cycles: 44065687
1banks busy for write cycles: 361698
2banks busy for read cycles: 48297335
2banks busy for write cycles: 373283
3banks busy for read cycles: 32515311
3banks busy for write cycles: 393140
4banks busy for read cycles: 17470117
4banks busy for write cycles: 422110
5banks busy for read cycles: 8757234
5banks busy for write cycles: 493206
6banks busy for read cycles: 5431239
6banks busy for write cycles: 688165
7banks busy for read cycles: 4006392
7banks busy for write cycles: 2799306
8banks busy for read cycles: 3378239
8banks busy for write cycles: 32190878

CPU 0 Branch Prediction Accuracy: 99.9991% MPKI: 6e-05 Average ROB Occupancy at Mispredict: 85.25
Branch types
NOT_BRANCH: 198618928 99.3095%
BRANCH_DIRECT_JUMP: 0 0%
BRANCH_INDIRECT: 0 0%
BRANCH_CONDITIONAL: 1380806 0.690403%
BRANCH_DIRECT_CALL: 0 0%
BRANCH_INDIRECT_CALL: 0 0%
BRANCH_RETURN: 0 0%
BRANCH_OTHER: 0 0%

DRAM PAGES: 1048576
Allocated PAGES: 54759
