526208 bits of metadata so far, 405638 left out of 526336 total budget
table size is 13521 bits, 2253 entries for 5 bit, 1931 entries for 6 bit
526208 total bits (64.23KB)

*** ChampSim Multicore Out-of-Order Simulator ***

Warmup Instructions: 50000000
Simulation Instructions: 200000000
Number of CPUs: 1
LLC sets: 2048
LLC ways: 16
Off-chip DRAM Size: 4096 MB Channels: 1 Width: 64-bit Data Rate: 6400 MT/s
argv[0]: ./ChampSim/Berti/bin/multiperspective_perceptron-no-vberti-no-no-no-no-no-lru-lru-lru-srrip-drrip-lru-lru-lru-1core-no
argv[1]: -warmup_instructions
argv[2]: 50000000
argv[3]: -simulation_instructions
argv[4]: 200000000
argv[5]: -traces
argv[6]: traces/spec2k17_ten/649.fotonik3d_s-8225B.champsimtrace.xz
CPU 0 runs traces/spec2k17_ten/649.fotonik3d_s-8225B.champsimtrace.xz
.xz
CPU 0 Multiperspective perceptron branch predictor
BTB has LRU replacement policy
ITLB has LRU replacement policy
DTLB has LRU replacement policy
STLB has LRU replacement policy
L1I has LRU replacement policy
History Sets: 8
History Ways: 16
BERTI Size: 16
BERTI Stride Size: 16
L1D has LRU replacement policy
Initialize SRRIP state for L2C
Initialize DRRIP state for LLC
Heartbeat CPU 0 instructions: 10000001 cycles: 2903949 heartbeat IPC: 3.44359 cumulative IPC: 3.44359 (Simulation time: 0 hr 6 min 43 sec) 
Heartbeat CPU 0 instructions: 20000001 cycles: 5807835 heartbeat IPC: 3.44366 cumulative IPC: 3.44362 (Simulation time: 0 hr 8 min 2 sec) 
Heartbeat CPU 0 instructions: 30000000 cycles: 8711678 heartbeat IPC: 3.44371 cumulative IPC: 3.44365 (Simulation time: 0 hr 10 min 21 sec) 
Heartbeat CPU 0 instructions: 40000002 cycles: 11615586 heartbeat IPC: 3.44364 cumulative IPC: 3.44365 (Simulation time: 0 hr 11 min 44 sec) 
Heartbeat CPU 0 instructions: 50000001 cycles: 14519411 heartbeat IPC: 3.44373 cumulative IPC: 3.44367 (Simulation time: 0 hr 12 min 55 sec) 

Warmup complete CPU 0 instructions: 50000001 cycles: 14519411 (Simulation time: 0 hr 12 min 55 sec) 

Heartbeat CPU 0 instructions: 60000000 cycles: 24481860 heartbeat IPC: 1.00377 cumulative IPC: 1.00377 (Simulation time: 0 hr 16 min 35 sec) 
Heartbeat CPU 0 instructions: 70000001 cycles: 34446974 heartbeat IPC: 1.0035 cumulative IPC: 1.00364 (Simulation time: 0 hr 18 min 47 sec) 
Heartbeat CPU 0 instructions: 80000002 cycles: 44410918 heartbeat IPC: 1.00362 cumulative IPC: 1.00363 (Simulation time: 0 hr 22 min 4 sec) 
Heartbeat CPU 0 instructions: 90000003 cycles: 54375049 heartbeat IPC: 1.0036 cumulative IPC: 1.00362 (Simulation time: 0 hr 27 min 14 sec) 
Heartbeat CPU 0 instructions: 100000000 cycles: 64338406 heartbeat IPC: 1.00368 cumulative IPC: 1.00363 (Simulation time: 0 hr 32 min 0 sec) 
Heartbeat CPU 0 instructions: 110000000 cycles: 74302746 heartbeat IPC: 1.00358 cumulative IPC: 1.00362 (Simulation time: 0 hr 36 min 24 sec) 
Heartbeat CPU 0 instructions: 120000002 cycles: 84266731 heartbeat IPC: 1.00361 cumulative IPC: 1.00362 (Simulation time: 0 hr 41 min 12 sec) 
Heartbeat CPU 0 instructions: 130000003 cycles: 94230689 heartbeat IPC: 1.00362 cumulative IPC: 1.00362 (Simulation time: 0 hr 45 min 32 sec) 
Heartbeat CPU 0 instructions: 140000002 cycles: 104194653 heartbeat IPC: 1.00362 cumulative IPC: 1.00362 (Simulation time: 0 hr 50 min 4 sec) 
Heartbeat CPU 0 instructions: 150000003 cycles: 114158513 heartbeat IPC: 1.00363 cumulative IPC: 1.00362 (Simulation time: 0 hr 54 min 30 sec) 
Heartbeat CPU 0 instructions: 160000000 cycles: 124121446 heartbeat IPC: 1.00372 cumulative IPC: 1.00363 (Simulation time: 0 hr 59 min 0 sec) 
Heartbeat CPU 0 instructions: 170000001 cycles: 134085889 heartbeat IPC: 1.00357 cumulative IPC: 1.00363 (Simulation time: 1 hr 3 min 27 sec) 
Heartbeat CPU 0 instructions: 180000000 cycles: 144049933 heartbeat IPC: 1.00361 cumulative IPC: 1.00362 (Simulation time: 1 hr 8 min 2 sec) 
Heartbeat CPU 0 instructions: 190000001 cycles: 154012891 heartbeat IPC: 1.00372 cumulative IPC: 1.00363 (Simulation time: 1 hr 12 min 24 sec) 
Heartbeat CPU 0 instructions: 200000003 cycles: 163977365 heartbeat IPC: 1.00357 cumulative IPC: 1.00363 (Simulation time: 1 hr 16 min 25 sec) 
Heartbeat CPU 0 instructions: 210000000 cycles: 173941496 heartbeat IPC: 1.0036 cumulative IPC: 1.00363 (Simulation time: 1 hr 20 min 23 sec) 
Heartbeat CPU 0 instructions: 220000000 cycles: 183906245 heartbeat IPC: 1.00354 cumulative IPC: 1.00362 (Simulation time: 1 hr 24 min 35 sec) 
Heartbeat CPU 0 instructions: 230000000 cycles: 193868728 heartbeat IPC: 1.00377 cumulative IPC: 1.00363 (Simulation time: 1 hr 27 min 35 sec) 
Heartbeat CPU 0 instructions: 240000003 cycles: 203833210 heartbeat IPC: 1.00356 cumulative IPC: 1.00362 (Simulation time: 1 hr 30 min 7 sec) 
Heartbeat CPU 0 instructions: 250000003 cycles: 213796293 heartbeat IPC: 1.00371 cumulative IPC: 1.00363 (Simulation time: 1 hr 32 min 52 sec) 
Finished CPU 0 instructions: 200000002 cycles: 199276882 cumulative IPC: 1.00363 (Simulation time: 1 hr 32 min 52 sec) 

ChampSim completed all CPUs

Region of Interest Statistics

CPU 0 cumulative IPC: 1.00363 instructions: 200000002 cycles: 199276882
ITLB TOTAL     ACCESS:   28069618  HIT:   28069618  MISS:          0  HIT %:        100  MISS %:          0   MPKI: 0
ITLB LOAD TRANSLATION ACCESS:   28069618  HIT:   28069618  MISS:          0  HIT %:        100  MISS %:          0   MPKI: 0
ITLB PREFETCH  REQUESTED:          0  ISSUED:          0  USEFUL:          0  USELESS:          0
ITLB USEFUL LOAD PREFETCHES:          0 PREFETCH ISSUED TO LOWER LEVEL:          0  ACCURACY: -nan
ITLB TIMELY PREFETCHES:          0 LATE PREFETCHES: 0 DROPPED PREFETCHES: 0
ITLB PREFETCHES SAME FILL-ORIGIN LEVEL: 0 DIFFERENT FILL-ORIGIN LEVEL: 0
ITLB AVERAGE MISS LATENCY: -nan cycles
ITLB RQ	ACCESS:   35091230	FORWARD:          0	MERGED:    7021612	TO_CACHE:   28069618

DTLB TOTAL     ACCESS:   32335570  HIT:   32288696  MISS:      46874  HIT %:     99.855  MISS %:   0.144961   MPKI: 0.23437
DTLB LOAD TRANSLATION ACCESS:   32335570  HIT:   32288696  MISS:      46874  HIT %:     99.855  MISS %:   0.144961   MPKI: 0.23437
DTLB PREFETCH  REQUESTED:          0  ISSUED:          0  USEFUL:          0  USELESS:          0
DTLB USEFUL LOAD PREFETCHES:          0 PREFETCH ISSUED TO LOWER LEVEL:          0  ACCURACY: -nan
DTLB TIMELY PREFETCHES:          0 LATE PREFETCHES: 0 DROPPED PREFETCHES: 0
DTLB PREFETCHES SAME FILL-ORIGIN LEVEL: 0 DIFFERENT FILL-ORIGIN LEVEL: 0
DTLB AVERAGE MISS LATENCY: 77.6278 cycles
DTLB RQ	ACCESS:   50213424	FORWARD:          0	MERGED:   17877682	TO_CACHE:   32335742

STLB TOTAL     ACCESS:    7195044  HIT:    7167595  MISS:      27449  HIT %:    99.6185  MISS %:   0.381499   MPKI: 0.137245
STLB LOAD TRANSLATION ACCESS:      46874  HIT:      19425  MISS:      27449  HIT %:    41.4409  MISS %:    58.5591   MPKI: 0.137245
STLB TRANSLATION FROM L1D PREFETCHER ACCESS:    7148170  HIT:    7148170  MISS:          0  HIT %:        100  MISS %:          0   MPKI: 0
STLB PREFETCH  REQUESTED:          0  ISSUED:          0  USEFUL:          0  USELESS:          0
STLB USEFUL LOAD PREFETCHES:          0 PREFETCH ISSUED TO LOWER LEVEL:          0  ACCURACY: -nan
STLB TIMELY PREFETCHES:          0 LATE PREFETCHES: 12150 DROPPED PREFETCHES: 4453133
STLB PREFETCHES SAME FILL-ORIGIN LEVEL: 0 DIFFERENT FILL-ORIGIN LEVEL: 0
STLB AVERAGE MISS LATENCY: 119.118 cycles
STLB RQ	ACCESS:   55569723	FORWARD:          0	MERGED:   43798765	TO_CACHE:   11770958

STLB Hit, L1D data hit: 0
STLB Hit, L2C data hit: 0
STLB Hit, LLC data hit: 0
STLB Hit, LLC data miss: 0
STLB STLB hints to L2: 0
L1D TOTAL     ACCESS:   79369094  HIT:   76712756  MISS:    2656338  HIT %:    96.6532  MISS %:    3.34682   MPKI: 13.2817
L1D LOAD      ACCESS:   36089336  HIT:   35656860  MISS:     432476  HIT %:    98.8017  MISS %:    1.19835   MPKI: 2.16238
L1D RFO       ACCESS:   14038102  HIT:   14035469  MISS:       2633  HIT %:    99.9812  MISS %:  0.0187561   MPKI: 0.013165
L1D PREFETCH  ACCESS:   29241656  HIT:   27020427  MISS:    2221229  HIT %:    92.4039  MISS %:    7.59611   MPKI: 11.1061
L1D PREFETCH  REQUESTED:  118830881  ISSUED:  112281350  USEFUL:    2211635  USELESS:       9596
L1D USEFUL LOAD PREFETCHES:    2211635 PREFETCH ISSUED TO LOWER LEVEL:   21343449  ACCURACY: 10.3621
L1D TIMELY PREFETCHES:    2211635 LATE PREFETCHES: 30462 DROPPED PREFETCHES: 6942195
L1D PREFETCHES SAME FILL-ORIGIN LEVEL: 2251691 DIFFERENT FILL-ORIGIN LEVEL: 19091758
L1D AVERAGE MISS LATENCY: 27.1997 cycles
L1D RQ	ACCESS:   70165694	FORWARD:          0	MERGED:   33992976	TO_CACHE:   36172328
L1D WQ	ACCESS:   14041096	FORWARD:        390	MERGED:          0	TO_CACHE:   14041096
L1D PQ	ACCESS:   56758501	FORWARD:          0	MERGED:    1235652	TO_CACHE:   55522849

L1D UNIQUE REGIONS ACCESSED: 0
L1D REGIONS CONFLICTS: 0
L1D Cross Page Prefetch Requests: 10344853
L1D Same Page Prefetch Requests: 60293185
L1D ROI Sum of L1D PQ occupancy: 1219214322
L1D PREFETCHES PUSHED FROM L2C: 0
L1I TOTAL     ACCESS:   35091228  HIT:   35091228  MISS:          0  HIT %:        100  MISS %:          0   MPKI: 0
L1I LOAD      ACCESS:   35091228  HIT:   35091228  MISS:          0  HIT %:        100  MISS %:          0   MPKI: 0
L1I PREFETCH  REQUESTED:          0  ISSUED:          0  USEFUL:          0  USELESS:          0
L1I USEFUL LOAD PREFETCHES:          0 PREFETCH ISSUED TO LOWER LEVEL:          0  ACCURACY: -nan
L1I TIMELY PREFETCHES:          0 LATE PREFETCHES: 0 DROPPED PREFETCHES: 0
L1I PREFETCHES SAME FILL-ORIGIN LEVEL: 0 DIFFERENT FILL-ORIGIN LEVEL: 0
L1I AVERAGE MISS LATENCY: -nan cycles
L1I RQ	ACCESS:   45626905	FORWARD:          0	MERGED:   10535675	TO_CACHE:   35091230

BTB TOTAL     ACCESS:    3509173  HIT:    3509164  MISS:          9  HIT %:    99.9997  MISS %: 0.000256471   MPKI: 4.5e-05
BTB BRANCH_DIRECT_JUMP	ACCESS:        876  HIT:        874  MISS:          2
BTB BRANCH_INDIRECT	ACCESS:          0  HIT:          0  MISS:          0
BTB BRANCH_CONDITIONAL	ACCESS:    3506545  HIT:    3506542  MISS:          3
BTB BRANCH_DIRECT_CALL	ACCESS:        876  HIT:        874  MISS:          2
BTB BRANCH_INDIRECT_CALL	ACCESS:          0  HIT:          0  MISS:          0
BTB BRANCH_RETURN	ACCESS:        876  HIT:        874  MISS:          2
BTB BRANCH_OTHER ACCESS:          0  HIT:          0  MISS:          0

L2C TOTAL     ACCESS:   25537349  HIT:   23600387  MISS:    1936962  HIT %:    92.4152  MISS %:    7.58482   MPKI: 9.68481
L2C LOAD      ACCESS:     402014  HIT:     358563  MISS:      43451  HIT %:    89.1917  MISS %:    10.8083   MPKI: 0.217255
L2C DATA LOAD MPKI: 0.217255
L2C INSTRUCTION LOAD MPKI: 0
L2C RFO       ACCESS:       2633  HIT:       2604  MISS:         29  HIT %:    98.8986  MISS %:    1.10141   MPKI: 0.000145
L2C PREFETCH  ACCESS:   18881373  HIT:   16992611  MISS:    1888762  HIT %:    89.9967  MISS %:    10.0033   MPKI: 9.44381
L2C DATA PREFETCH MPKI: 9.44381
L2C INSTRUCTION PREFETCH MPKI: 0
L2C WRITEBACK ACCESS:    1757434  HIT:    1756368  MISS:       1066  HIT %:    99.9393  MISS %:  0.0606566   MPKI: 0.00533
L2C LOAD TRANSLATION ACCESS:      27463  HIT:      27402  MISS:         61  HIT %:    99.7779  MISS %:   0.222117   MPKI: 0.000305
L2C TRANSLATION FROM L1D PREFETCHER ACCESS:    4466432  HIT:    4462839  MISS:       3593  HIT %:    99.9196  MISS %:  0.0804445   MPKI: 0.017965
L2C PREFETCH  REQUESTED:          0  ISSUED:          0  USEFUL:     357835  USELESS:    1535676
L2C USEFUL LOAD PREFETCHES:     357835 PREFETCH ISSUED TO LOWER LEVEL:    1894818  ACCURACY: 18.8849
L2C TIMELY PREFETCHES:     357835 LATE PREFETCHES: 6055 DROPPED PREFETCHES: 0
L2C PREFETCHES SAME FILL-ORIGIN LEVEL: 1658609 DIFFERENT FILL-ORIGIN LEVEL: 0
L2C AVERAGE MISS LATENCY: 180.012 cycles
L2C RQ	ACCESS:    4898543	FORWARD:          0	MERGED:          0	TO_CACHE:    4898543
L2C WQ	ACCESS:    1757434	FORWARD:          0	MERGED:          0	TO_CACHE:    1757434
L2C PQ	ACCESS:   21343449	FORWARD:          0	MERGED:        206	TO_CACHE:   21343243

L2C Instructions Evicting Data 0
L2C Translations Evicting Data 3652
L2C Data Evicting Data 1928592
L2C Instructions Evicting Instructions 0
L2C Translations Evicting Instructions 0
L2C Data Evicting Instructions 0
L2C Instructions Evicting Translations 0
L2C Translations Evicting Translations 2
L2C Data Evicting Translations 3650
L2C Dense regions hint from L2: 0
PSCL5 TOTAL     ACCESS:    4492734  HIT:    4492734  MISS:          0  HIT %:        100  MISS %:          0   MPKI: 0
PSCL5 LOAD TRANSLATION ACCESS:      27449  HIT:      27449  MISS:          0  HIT %:        100  MISS %:          0   MPKI: 0
PSCL5 TRANSLATION FROM L1D PREFETCHER ACCESS:    4465285  HIT:    4465285  MISS:          0  HIT %:        100  MISS %:          0   MPKI: 0
PSCL5 PREFETCH  REQUESTED:          0  ISSUED:          0  USEFUL:          0  USELESS:          0
PSCL5 USEFUL LOAD PREFETCHES:          0 PREFETCH ISSUED TO LOWER LEVEL:          0  ACCURACY: -nan
PSCL5 TIMELY PREFETCHES:          0 LATE PREFETCHES: 0 DROPPED PREFETCHES: 0
PSCL5 PREFETCHES SAME FILL-ORIGIN LEVEL: 0 DIFFERENT FILL-ORIGIN LEVEL: 0

PSCL4 TOTAL     ACCESS:    4492734  HIT:    4492734  MISS:          0  HIT %:        100  MISS %:          0   MPKI: 0
PSCL4 LOAD TRANSLATION ACCESS:      27449  HIT:      27449  MISS:          0  HIT %:        100  MISS %:          0   MPKI: 0
PSCL4 TRANSLATION FROM L1D PREFETCHER ACCESS:    4465285  HIT:    4465285  MISS:          0  HIT %:        100  MISS %:          0   MPKI: 0
PSCL4 PREFETCH  REQUESTED:          0  ISSUED:          0  USEFUL:          0  USELESS:          0
PSCL4 USEFUL LOAD PREFETCHES:          0 PREFETCH ISSUED TO LOWER LEVEL:          0  ACCURACY: -nan
PSCL4 TIMELY PREFETCHES:          0 LATE PREFETCHES: 0 DROPPED PREFETCHES: 0
PSCL4 PREFETCHES SAME FILL-ORIGIN LEVEL: 0 DIFFERENT FILL-ORIGIN LEVEL: 0

PSCL3 TOTAL     ACCESS:    4398899  HIT:    4398889  MISS:         10  HIT %:    99.9998  MISS %: 0.00022733   MPKI: 5e-05
PSCL3 LOAD TRANSLATION ACCESS:      26933  HIT:      26923  MISS:         10  HIT %:    99.9629  MISS %:  0.0371292   MPKI: 5e-05
PSCL3 TRANSLATION FROM L1D PREFETCHER ACCESS:    4371966  HIT:    4371966  MISS:          0  HIT %:        100  MISS %:          0   MPKI: 0
PSCL3 PREFETCH  REQUESTED:          0  ISSUED:          0  USEFUL:          0  USELESS:          0
PSCL3 USEFUL LOAD PREFETCHES:          0 PREFETCH ISSUED TO LOWER LEVEL:          0  ACCURACY: -nan
PSCL3 TIMELY PREFETCHES:          0 LATE PREFETCHES: 0 DROPPED PREFETCHES: 0
PSCL3 PREFETCHES SAME FILL-ORIGIN LEVEL: 0 DIFFERENT FILL-ORIGIN LEVEL: 0

PSCL2 TOTAL     ACCESS:    4471673  HIT:    4471580  MISS:         93  HIT %:    99.9979  MISS %: 0.00207976   MPKI: 0.000465
PSCL2 LOAD TRANSLATION ACCESS:      27449  HIT:      27356  MISS:         93  HIT %:    99.6612  MISS %:    0.33881   MPKI: 0.000465
PSCL2 TRANSLATION FROM L1D PREFETCHER ACCESS:    4444224  HIT:    4444224  MISS:          0  HIT %:        100  MISS %:          0   MPKI: 0
PSCL2 PREFETCH  REQUESTED:          0  ISSUED:          0  USEFUL:          0  USELESS:          0
PSCL2 USEFUL LOAD PREFETCHES:          0 PREFETCH ISSUED TO LOWER LEVEL:          0  ACCURACY: -nan
PSCL2 TIMELY PREFETCHES:          0 LATE PREFETCHES: 0 DROPPED PREFETCHES: 0
PSCL2 PREFETCHES SAME FILL-ORIGIN LEVEL: 0 DIFFERENT FILL-ORIGIN LEVEL: 0

LLC TOTAL     ACCESS:    3689182  HIT:    1900099  MISS:    1789083  HIT %:    51.5046  MISS %:    48.4954   MPKI: 8.94541
LLC LOAD      ACCESS:      37396  HIT:       9236  MISS:      28160  HIT %:    24.6978  MISS %:    75.3022   MPKI: 0.1408
LLC RFO       ACCESS:         29  HIT:         29  MISS:          0  HIT %:        100  MISS %:          0   MPKI: 0
LLC PREFETCH  ACCESS:    1894817  HIT:     163994  MISS:    1730823  HIT %:    8.65487  MISS %:    91.3451   MPKI: 8.65411
LLC WRITEBACK ACCESS:    1753286  HIT:    1726740  MISS:      26546  HIT %:    98.4859  MISS %:    1.51407   MPKI: 0.13273
LLC LOAD TRANSLATION ACCESS:         61  HIT:          4  MISS:         57  HIT %:    6.55738  MISS %:    93.4426   MPKI: 0.000285
LLC TRANSLATION FROM L1D PREFETCHER ACCESS:       3593  HIT:         96  MISS:       3497  HIT %:    2.67186  MISS %:    97.3281   MPKI: 0.017485
LLC PREFETCH  REQUESTED:          0  ISSUED:          0  USEFUL:        387  USELESS:    1733829
LLC USEFUL LOAD PREFETCHES:        387 PREFETCH ISSUED TO LOWER LEVEL:    1730824  ACCURACY: 0.0223593
LLC TIMELY PREFETCHES:        387 LATE PREFETCHES: 0 DROPPED PREFETCHES: 0
LLC PREFETCHES SAME FILL-ORIGIN LEVEL: 0 DIFFERENT FILL-ORIGIN LEVEL: 0
LLC AVERAGE MISS LATENCY: 162.597 cycles
LLC RQ	ACCESS:      41079	FORWARD:          0	MERGED:          0	TO_CACHE:      41079
LLC WQ	ACCESS:    1753286	FORWARD:          0	MERGED:          0	TO_CACHE:    1753286
LLC PQ	ACCESS:    1894818	FORWARD:          0	MERGED:          0	TO_CACHE:    1894818

LLC Dense regions hint to LLC: 0

RAW hits: 3404
Loads Generated: 70169098
Loads sent to L1D: 70165694
Stores Generated: 14041090
Stores sent to L1D: 14041096
Major fault: 0 Minor fault: 34487
Allocated PAGES: 34487

DRAM Statistics
 CHANNEL 0
 RQ ROW_BUFFER_HIT:     332306  ROW_BUFFER_MISS:    1430231
 DBUS_CONGESTED:       1763
 WQ ROW_BUFFER_HIT:     667020  ROW_BUFFER_MISS:    1085641  FULL:          0

 AVG_CONGESTED_CYCLE: 5
 All warmup complete: 2
Channel 0 Bank busy for read cycles: 0
Channel 0 Bank busy for write cycles: 0
Channel 0
Rank 0
0banks busy for read cycles: 38462947
0banks busy for write cycles: 63625
1banks busy for read cycles: 56215343
1banks busy for write cycles: 3724549
2banks busy for read cycles: 32784913
2banks busy for write cycles: 2727185
3banks busy for read cycles: 11477754
3banks busy for write cycles: 2471291
4banks busy for read cycles: 5768844
4banks busy for write cycles: 2349132
5banks busy for read cycles: 2564801
5banks busy for write cycles: 2510585
6banks busy for read cycles: 1536695
6banks busy for write cycles: 3215311
7banks busy for read cycles: 1334837
7banks busy for write cycles: 4839048
8banks busy for read cycles: 2561969
8banks busy for write cycles: 24668054

CPU 0 Branch Prediction Accuracy: 100% MPKI: 0 Average ROB Occupancy at Mispredict: -nan
Branch types
NOT_BRANCH: 196487440 98.2437%
BRANCH_DIRECT_JUMP: 876 0.000438%
BRANCH_INDIRECT: 0 0%
BRANCH_CONDITIONAL: 3509611 1.75481%
BRANCH_DIRECT_CALL: 876 0.000438%
BRANCH_INDIRECT_CALL: 0 0%
BRANCH_RETURN: 876 0.000438%
BRANCH_OTHER: 0 0%

DRAM PAGES: 1048576
Allocated PAGES: 34487
