 (TOTAL 67349)
 
*** ChampSim Multicore Out-of-Order Simulator ***

Warmup Instructions: 50000000
Simulation Instructions: 200000000
Number of CPUs: 1
LLC sets: 2048
LLC ways: 16
Off-chip DRAM Size: 4096 MB Channels: 1 Width: 64-bit Data Rate: 6400 MT/s
argv[0]: ./ChampSim/Berti/bin/tagescl8kb-no-vberti-no-no-no-no-no-lru-lru-lru-srrip-drrip-lru-lru-lru-1core-no
argv[1]: -warmup_instructions
argv[2]: 50000000
argv[3]: -simulation_instructions
argv[4]: 200000000
argv[5]: -traces
argv[6]: traces/spec2k17_ten/603.bwaves_s-1080B.champsimtrace.xz
CPU 0 runs traces/spec2k17_ten/603.bwaves_s-1080B.champsimtrace.xz
.xz
CPU 0 Tage branch predictor
BTB has LRU replacement policy
ITLB has LRU replacement policy
DTLB has LRU replacement policy
STLB has LRU replacement policy
L1I has LRU replacement policy
History Sets: 8
History Ways: 16
BERTI Size: 16
BERTI Stride Size: 16
L1D has LRU replacement policy
Initialize SRRIP state for L2C
Initialize DRRIP state for LLC
Heartbeat CPU 0 instructions: 10000001 cycles: 2957067 heartbeat IPC: 3.38173 cumulative IPC: 3.38173 (Simulation time: 0 hr 6 min 45 sec) 
Heartbeat CPU 0 instructions: 20000003 cycles: 5885348 heartbeat IPC: 3.41497 cumulative IPC: 3.39827 (Simulation time: 0 hr 12 min 36 sec) 
Heartbeat CPU 0 instructions: 30000001 cycles: 8848081 heartbeat IPC: 3.37526 cumulative IPC: 3.39057 (Simulation time: 0 hr 16 min 35 sec) 
Heartbeat CPU 0 instructions: 40000001 cycles: 11810262 heartbeat IPC: 3.37589 cumulative IPC: 3.38689 (Simulation time: 0 hr 19 min 20 sec) 
Heartbeat CPU 0 instructions: 50000001 cycles: 14772678 heartbeat IPC: 3.37562 cumulative IPC: 3.38463 (Simulation time: 0 hr 21 min 43 sec) 

Warmup complete CPU 0 instructions: 50000001 cycles: 14772678 (Simulation time: 0 hr 21 min 43 sec) 

Heartbeat CPU 0 instructions: 60000000 cycles: 26587930 heartbeat IPC: 0.846364 cumulative IPC: 0.846364 (Simulation time: 0 hr 26 min 2 sec) 
Heartbeat CPU 0 instructions: 70000001 cycles: 38398808 heartbeat IPC: 0.846677 cumulative IPC: 0.84652 (Simulation time: 0 hr 30 min 24 sec) 
Heartbeat CPU 0 instructions: 80000000 cycles: 50211541 heartbeat IPC: 0.846544 cumulative IPC: 0.846528 (Simulation time: 0 hr 34 min 6 sec) 
Heartbeat CPU 0 instructions: 90000001 cycles: 62023875 heartbeat IPC: 0.846573 cumulative IPC: 0.846539 (Simulation time: 0 hr 38 min 19 sec) 
Heartbeat CPU 0 instructions: 100000000 cycles: 73902962 heartbeat IPC: 0.841815 cumulative IPC: 0.84559 (Simulation time: 0 hr 42 min 40 sec) 
Heartbeat CPU 0 instructions: 110000000 cycles: 85764001 heartbeat IPC: 0.843096 cumulative IPC: 0.845174 (Simulation time: 0 hr 45 min 35 sec) 
Heartbeat CPU 0 instructions: 120000000 cycles: 97622726 heartbeat IPC: 0.843261 cumulative IPC: 0.8449 (Simulation time: 0 hr 51 min 24 sec) 
Heartbeat CPU 0 instructions: 130000001 cycles: 109482696 heartbeat IPC: 0.843173 cumulative IPC: 0.844684 (Simulation time: 0 hr 56 min 12 sec) 
Heartbeat CPU 0 instructions: 140000003 cycles: 121335876 heartbeat IPC: 0.843656 cumulative IPC: 0.844569 (Simulation time: 1 hr 1 min 35 sec) 
Heartbeat CPU 0 instructions: 150000000 cycles: 133187681 heartbeat IPC: 0.843753 cumulative IPC: 0.844488 (Simulation time: 1 hr 8 min 34 sec) 
Heartbeat CPU 0 instructions: 160000002 cycles: 145041068 heartbeat IPC: 0.843641 cumulative IPC: 0.844411 (Simulation time: 1 hr 13 min 8 sec) 
Heartbeat CPU 0 instructions: 170000002 cycles: 156887329 heartbeat IPC: 0.844148 cumulative IPC: 0.844389 (Simulation time: 1 hr 17 min 20 sec) 
Heartbeat CPU 0 instructions: 180000001 cycles: 168736012 heartbeat IPC: 0.843976 cumulative IPC: 0.844357 (Simulation time: 1 hr 21 min 57 sec) 
Heartbeat CPU 0 instructions: 190000003 cycles: 180580128 heartbeat IPC: 0.844301 cumulative IPC: 0.844353 (Simulation time: 1 hr 28 min 46 sec) 
Heartbeat CPU 0 instructions: 200000001 cycles: 192423600 heartbeat IPC: 0.844347 cumulative IPC: 0.844352 (Simulation time: 1 hr 31 min 47 sec) 
Heartbeat CPU 0 instructions: 210000000 cycles: 204273303 heartbeat IPC: 0.843903 cumulative IPC: 0.844324 (Simulation time: 1 hr 34 min 23 sec) 
Heartbeat CPU 0 instructions: 220000000 cycles: 216112952 heartbeat IPC: 0.84462 cumulative IPC: 0.844342 (Simulation time: 1 hr 37 min 13 sec) 
Heartbeat CPU 0 instructions: 230000001 cycles: 227960127 heartbeat IPC: 0.844083 cumulative IPC: 0.844327 (Simulation time: 1 hr 40 min 20 sec) 
Heartbeat CPU 0 instructions: 240000000 cycles: 239815083 heartbeat IPC: 0.843529 cumulative IPC: 0.844285 (Simulation time: 1 hr 44 min 3 sec) 
Heartbeat CPU 0 instructions: 250000000 cycles: 251656209 heartbeat IPC: 0.844514 cumulative IPC: 0.844297 (Simulation time: 1 hr 47 min 23 sec) 
Finished CPU 0 instructions: 200000003 cycles: 236883532 cumulative IPC: 0.844297 (Simulation time: 1 hr 47 min 23 sec) 

ChampSim completed all CPUs

Region of Interest Statistics

CPU 0 cumulative IPC: 0.844297 instructions: 200000003 cycles: 236883532
ITLB TOTAL     ACCESS:   38112337  HIT:   38112337  MISS:          0  HIT %:        100  MISS %:          0   MPKI: 0
ITLB LOAD TRANSLATION ACCESS:   38112337  HIT:   38112337  MISS:          0  HIT %:        100  MISS %:          0   MPKI: 0
ITLB PREFETCH  REQUESTED:          0  ISSUED:          0  USEFUL:          0  USELESS:          0
ITLB USEFUL LOAD PREFETCHES:          0 PREFETCH ISSUED TO LOWER LEVEL:          0  ACCURACY: -nan
ITLB TIMELY PREFETCHES:          0 LATE PREFETCHES: 0 DROPPED PREFETCHES: 0
ITLB PREFETCHES SAME FILL-ORIGIN LEVEL: 0 DIFFERENT FILL-ORIGIN LEVEL: 0
ITLB AVERAGE MISS LATENCY: -nan cycles
ITLB RQ	ACCESS:   44234617	FORWARD:          0	MERGED:    6122281	TO_CACHE:   38112336

DTLB TOTAL     ACCESS:   28554657  HIT:   28554418  MISS:        239  HIT %:    99.9992  MISS %: 0.000836991   MPKI: 0.001195
DTLB LOAD TRANSLATION ACCESS:   28554657  HIT:   28554418  MISS:        239  HIT %:    99.9992  MISS %: 0.000836991   MPKI: 0.001195
DTLB PREFETCH  REQUESTED:          0  ISSUED:          0  USEFUL:          0  USELESS:          0
DTLB USEFUL LOAD PREFETCHES:          0 PREFETCH ISSUED TO LOWER LEVEL:          0  ACCURACY: -nan
DTLB TIMELY PREFETCHES:          0 LATE PREFETCHES: 0 DROPPED PREFETCHES: 0
DTLB PREFETCHES SAME FILL-ORIGIN LEVEL: 0 DIFFERENT FILL-ORIGIN LEVEL: 0
DTLB AVERAGE MISS LATENCY: 130.569 cycles
DTLB RQ	ACCESS:   37713366	FORWARD:          0	MERGED:    9158240	TO_CACHE:   28555126

STLB TOTAL     ACCESS:     510735  HIT:     510504  MISS:        231  HIT %:    99.9548  MISS %:  0.0452289   MPKI: 0.001155
STLB LOAD TRANSLATION ACCESS:        239  HIT:          8  MISS:        231  HIT %:    3.34728  MISS %:    96.6527   MPKI: 0.001155
STLB TRANSLATION FROM L1D PREFETCHER ACCESS:     510496  HIT:     510496  MISS:          0  HIT %:        100  MISS %:          0   MPKI: 0
STLB PREFETCH  REQUESTED:          0  ISSUED:          0  USEFUL:          0  USELESS:          0
STLB USEFUL LOAD PREFETCHES:          0 PREFETCH ISSUED TO LOWER LEVEL:          0  ACCURACY: -nan
STLB TIMELY PREFETCHES:          0 LATE PREFETCHES: 20 DROPPED PREFETCHES: 3682
STLB PREFETCHES SAME FILL-ORIGIN LEVEL: 0 DIFFERENT FILL-ORIGIN LEVEL: 0
STLB AVERAGE MISS LATENCY: 126.584 cycles
STLB RQ	ACCESS:     963248	FORWARD:          0	MERGED:     448798	TO_CACHE:     514450

STLB Hit, L1D data hit: 0
STLB Hit, L2C data hit: 0
STLB Hit, LLC data hit: 0
STLB Hit, LLC data miss: 0
STLB STLB hints to L2: 0
L1D TOTAL     ACCESS:   38497998  HIT:   38482707  MISS:      15291  HIT %:    99.9603  MISS %:  0.0397189   MPKI: 0.076455
L1D LOAD      ACCESS:   30876006  HIT:   30875635  MISS:        371  HIT %:    99.9988  MISS %: 0.00120158   MPKI: 0.001855
L1D RFO       ACCESS:    6763277  HIT:    6749848  MISS:      13429  HIT %:    99.8014  MISS %:   0.198558   MPKI: 0.067145
L1D PREFETCH  ACCESS:     858715  HIT:     857224  MISS:       1491  HIT %:    99.8264  MISS %:   0.173632   MPKI: 0.007455
L1D PREFETCH  REQUESTED:    1926516  ISSUED:    1926460  USEFUL:       1415  USELESS:        102
L1D USEFUL LOAD PREFETCHES:       1415 PREFETCH ISSUED TO LOWER LEVEL:      95175  ACCURACY: 1.48673
L1D TIMELY PREFETCHES:       1415 LATE PREFETCHES: 0 DROPPED PREFETCHES: 10564
L1D PREFETCHES SAME FILL-ORIGIN LEVEL: 1524 DIFFERENT FILL-ORIGIN LEVEL: 93651
L1D AVERAGE MISS LATENCY: 163.973 cycles
L1D RQ	ACCESS:   50134833	FORWARD:          0	MERGED:   19179537	TO_CACHE:   30876243
L1D WQ	ACCESS:    6935166	FORWARD:      79286	MERGED:      98043	TO_CACHE:    6837123
L1D PQ	ACCESS:     963451	FORWARD:          0	MERGED:        209	TO_CACHE:     963009

L1D UNIQUE REGIONS ACCESSED: 0
L1D REGIONS CONFLICTS: 0
L1D Cross Page Prefetch Requests: 103160
L1D Same Page Prefetch Requests: 1248060
L1D ROI Sum of L1D PQ occupancy: 13203936
L1D PREFETCHES PUSHED FROM L2C: 0
L1I TOTAL     ACCESS:   44234616  HIT:   44234616  MISS:          0  HIT %:        100  MISS %:          0   MPKI: 0
L1I LOAD      ACCESS:   44234616  HIT:   44234616  MISS:          0  HIT %:        100  MISS %:          0   MPKI: 0
L1I PREFETCH  REQUESTED:          0  ISSUED:          0  USEFUL:          0  USELESS:          0
L1I USEFUL LOAD PREFETCHES:          0 PREFETCH ISSUED TO LOWER LEVEL:          0  ACCURACY: -nan
L1I TIMELY PREFETCHES:          0 LATE PREFETCHES: 0 DROPPED PREFETCHES: 0
L1I PREFETCHES SAME FILL-ORIGIN LEVEL: 0 DIFFERENT FILL-ORIGIN LEVEL: 0
L1I AVERAGE MISS LATENCY: -nan cycles
L1I RQ	ACCESS:   76019124	FORWARD:          0	MERGED:   31784507	TO_CACHE:   44234617

BTB TOTAL     ACCESS:   27994187  HIT:   27872437  MISS:     121750  HIT %:    99.5651  MISS %:   0.434912   MPKI: 0.60875
BTB BRANCH_DIRECT_JUMP	ACCESS:    2144536  HIT:    2144495  MISS:         41
BTB BRANCH_INDIRECT	ACCESS:     165760  HIT:     165234  MISS:        526
BTB BRANCH_CONDITIONAL	ACCESS:   25188141  HIT:   25188006  MISS:        135
BTB BRANCH_DIRECT_CALL	ACCESS:     247875  HIT:     247811  MISS:         64
BTB BRANCH_INDIRECT_CALL	ACCESS:          0  HIT:          0  MISS:          0
BTB BRANCH_RETURN	ACCESS:     247875  HIT:     126891  MISS:     120984
BTB BRANCH_OTHER ACCESS:          0  HIT:          0  MISS:          0

L2C TOTAL     ACCESS:     126081  HIT:     111149  MISS:      14932  HIT %:    88.1568  MISS %:    11.8432   MPKI: 0.07466
L2C LOAD      ACCESS:        371  HIT:        275  MISS:         96  HIT %:     74.124  MISS %:     25.876   MPKI: 0.00048
L2C DATA LOAD MPKI: 0.00048
L2C INSTRUCTION LOAD MPKI: 0
L2C RFO       ACCESS:      13396  HIT:       2051  MISS:      11345  HIT %:    15.3105  MISS %:    84.6895   MPKI: 0.056725
L2C PREFETCH  ACCESS:      94804  HIT:      91362  MISS:       3442  HIT %:    96.3694  MISS %:    3.63065   MPKI: 0.01721
L2C DATA PREFETCH MPKI: 0.01721
L2C INSTRUCTION PREFETCH MPKI: 0
L2C WRITEBACK ACCESS:      13577  HIT:      13559  MISS:         18  HIT %:    99.8674  MISS %:   0.132577   MPKI: 9e-05
L2C LOAD TRANSLATION ACCESS:        231  HIT:        216  MISS:         15  HIT %:    93.5065  MISS %:    6.49351   MPKI: 7.5e-05
L2C TRANSLATION FROM L1D PREFETCHER ACCESS:       3702  HIT:       3686  MISS:         16  HIT %:    99.5678  MISS %:   0.432199   MPKI: 8e-05
L2C PREFETCH  REQUESTED:          0  ISSUED:          0  USEFUL:       1992  USELESS:       1261
L2C USEFUL LOAD PREFETCHES:       1992 PREFETCH ISSUED TO LOWER LEVEL:       3774  ACCURACY: 52.7822
L2C TIMELY PREFETCHES:       1992 LATE PREFETCHES: 332 DROPPED PREFETCHES: 0
L2C PREFETCHES SAME FILL-ORIGIN LEVEL: 3413 DIFFERENT FILL-ORIGIN LEVEL: 0
L2C AVERAGE MISS LATENCY: 193.671 cycles
L2C RQ	ACCESS:      17700	FORWARD:          0	MERGED:          0	TO_CACHE:      17700
L2C WQ	ACCESS:      13577	FORWARD:          0	MERGED:          0	TO_CACHE:      13577
L2C PQ	ACCESS:      95175	FORWARD:          0	MERGED:          0	TO_CACHE:      95175

L2C Instructions Evicting Data 0
L2C Translations Evicting Data 31
L2C Data Evicting Data 14854
L2C Instructions Evicting Instructions 0
L2C Translations Evicting Instructions 0
L2C Data Evicting Instructions 1
L2C Instructions Evicting Translations 0
L2C Translations Evicting Translations 0
L2C Data Evicting Translations 28
L2C Dense regions hint from L2: 0
PSCL5 TOTAL     ACCESS:       3933  HIT:       3933  MISS:          0  HIT %:        100  MISS %:          0   MPKI: 0
PSCL5 LOAD TRANSLATION ACCESS:        231  HIT:        231  MISS:          0  HIT %:        100  MISS %:          0   MPKI: 0
PSCL5 TRANSLATION FROM L1D PREFETCHER ACCESS:       3702  HIT:       3702  MISS:          0  HIT %:        100  MISS %:          0   MPKI: 0
PSCL5 PREFETCH  REQUESTED:          0  ISSUED:          0  USEFUL:          0  USELESS:          0
PSCL5 USEFUL LOAD PREFETCHES:          0 PREFETCH ISSUED TO LOWER LEVEL:          0  ACCURACY: -nan
PSCL5 TIMELY PREFETCHES:          0 LATE PREFETCHES: 0 DROPPED PREFETCHES: 0
PSCL5 PREFETCHES SAME FILL-ORIGIN LEVEL: 0 DIFFERENT FILL-ORIGIN LEVEL: 0

PSCL4 TOTAL     ACCESS:       3933  HIT:       3933  MISS:          0  HIT %:        100  MISS %:          0   MPKI: 0
PSCL4 LOAD TRANSLATION ACCESS:        231  HIT:        231  MISS:          0  HIT %:        100  MISS %:          0   MPKI: 0
PSCL4 TRANSLATION FROM L1D PREFETCHER ACCESS:       3702  HIT:       3702  MISS:          0  HIT %:        100  MISS %:          0   MPKI: 0
PSCL4 PREFETCH  REQUESTED:          0  ISSUED:          0  USEFUL:          0  USELESS:          0
PSCL4 USEFUL LOAD PREFETCHES:          0 PREFETCH ISSUED TO LOWER LEVEL:          0  ACCURACY: -nan
PSCL4 TIMELY PREFETCHES:          0 LATE PREFETCHES: 0 DROPPED PREFETCHES: 0
PSCL4 PREFETCHES SAME FILL-ORIGIN LEVEL: 0 DIFFERENT FILL-ORIGIN LEVEL: 0

PSCL3 TOTAL     ACCESS:       3933  HIT:       3933  MISS:          0  HIT %:        100  MISS %:          0   MPKI: 0
PSCL3 LOAD TRANSLATION ACCESS:        231  HIT:        231  MISS:          0  HIT %:        100  MISS %:          0   MPKI: 0
PSCL3 TRANSLATION FROM L1D PREFETCHER ACCESS:       3702  HIT:       3702  MISS:          0  HIT %:        100  MISS %:          0   MPKI: 0
PSCL3 PREFETCH  REQUESTED:          0  ISSUED:          0  USEFUL:          0  USELESS:          0
PSCL3 USEFUL LOAD PREFETCHES:          0 PREFETCH ISSUED TO LOWER LEVEL:          0  ACCURACY: -nan
PSCL3 TIMELY PREFETCHES:          0 LATE PREFETCHES: 0 DROPPED PREFETCHES: 0
PSCL3 PREFETCHES SAME FILL-ORIGIN LEVEL: 0 DIFFERENT FILL-ORIGIN LEVEL: 0

PSCL2 TOTAL     ACCESS:       3933  HIT:       3933  MISS:          0  HIT %:        100  MISS %:          0   MPKI: 0
PSCL2 LOAD TRANSLATION ACCESS:        231  HIT:        231  MISS:          0  HIT %:        100  MISS %:          0   MPKI: 0
PSCL2 TRANSLATION FROM L1D PREFETCHER ACCESS:       3702  HIT:       3702  MISS:          0  HIT %:        100  MISS %:          0   MPKI: 0
PSCL2 PREFETCH  REQUESTED:          0  ISSUED:          0  USEFUL:          0  USELESS:          0
PSCL2 USEFUL LOAD PREFETCHES:          0 PREFETCH ISSUED TO LOWER LEVEL:          0  ACCURACY: -nan
PSCL2 TIMELY PREFETCHES:          0 LATE PREFETCHES: 0 DROPPED PREFETCHES: 0
PSCL2 PREFETCHES SAME FILL-ORIGIN LEVEL: 0 DIFFERENT FILL-ORIGIN LEVEL: 0

LLC TOTAL     ACCESS:      28580  HIT:      13472  MISS:      15108  HIT %:    47.1379  MISS %:    52.8621   MPKI: 0.07554
LLC LOAD      ACCESS:         96  HIT:          9  MISS:         87  HIT %:      9.375  MISS %:     90.625   MPKI: 0.000435
LLC RFO       ACCESS:      11013  HIT:          0  MISS:      11013  HIT %:          0  MISS %:        100   MPKI: 0.055065
LLC PREFETCH  ACCESS:       3774  HIT:          6  MISS:       3768  HIT %:   0.158983  MISS %:     99.841   MPKI: 0.01884
LLC WRITEBACK ACCESS:      13666  HIT:      13457  MISS:        209  HIT %:    98.4707  MISS %:    1.52934   MPKI: 0.001045
LLC LOAD TRANSLATION ACCESS:         15  HIT:          0  MISS:         15  HIT %:          0  MISS %:        100   MPKI: 7.5e-05
LLC TRANSLATION FROM L1D PREFETCHER ACCESS:         16  HIT:          0  MISS:         16  HIT %:          0  MISS %:        100   MPKI: 8e-05
LLC PREFETCH  REQUESTED:          0  ISSUED:          0  USEFUL:          0  USELESS:       1174
LLC USEFUL LOAD PREFETCHES:          0 PREFETCH ISSUED TO LOWER LEVEL:       3768  ACCURACY: 0
LLC TIMELY PREFETCHES:          0 LATE PREFETCHES: 0 DROPPED PREFETCHES: 0
LLC PREFETCHES SAME FILL-ORIGIN LEVEL: 0 DIFFERENT FILL-ORIGIN LEVEL: 0
LLC AVERAGE MISS LATENCY: 161.77 cycles
LLC RQ	ACCESS:      11140	FORWARD:          0	MERGED:          0	TO_CACHE:      11140
LLC WQ	ACCESS:      13666	FORWARD:          0	MERGED:          0	TO_CACHE:      13666
LLC PQ	ACCESS:       3774	FORWARD:          0	MERGED:          0	TO_CACHE:       3774

LLC Dense regions hint to LLC: 0

RAW hits: 323119
Loads Generated: 50457952
Loads sent to L1D: 50134833
Stores Generated: 6935166
Stores sent to L1D: 6935166
Major fault: 0 Minor fault: 1428
Allocated PAGES: 1428

DRAM Statistics
 CHANNEL 0
 RQ ROW_BUFFER_HIT:       2305  ROW_BUFFER_MISS:      12594
 DBUS_CONGESTED:          4
 WQ ROW_BUFFER_HIT:        884  ROW_BUFFER_MISS:      12773  FULL:          0

 AVG_CONGESTED_CYCLE: 3
 All warmup complete: 2
Channel 0 Bank busy for read cycles: 0
Channel 0 Bank busy for write cycles: 0
Channel 0
Rank 0
0banks busy for read cycles: 235151566
0banks busy for write cycles: 3968
1banks busy for read cycles: 358478
1banks busy for write cycles: 159638
2banks busy for read cycles: 316753
2banks busy for write cycles: 133133
3banks busy for read cycles: 252302
3banks busy for write cycles: 323772
4banks busy for read cycles: 31865
4banks busy for write cycles: 90344
5banks busy for read cycles: 9514
5banks busy for write cycles: 20975
6banks busy for read cycles: 5416
6banks busy for write cycles: 7696
7banks busy for read cycles: 4132
7banks busy for write cycles: 6881
8banks busy for read cycles: 2380
8banks busy for write cycles: 4720

CPU 0 Branch Prediction Accuracy: 99.9762% MPKI: 0.03119 Average ROB Occupancy at Mispredict: 79.3466
Branch types
NOT_BRANCH: 170937438 85.4687%
BRANCH_DIRECT_JUMP: 2144536 1.07227%
BRANCH_INDIRECT: 165760 0.08288%
BRANCH_CONDITIONAL: 26256534 13.1283%
BRANCH_DIRECT_CALL: 247875 0.123937%
BRANCH_INDIRECT_CALL: 0 0%
BRANCH_RETURN: 247875 0.123937%
BRANCH_OTHER: 0 0%

DRAM PAGES: 1048576
Allocated PAGES: 1428
