 (TOTAL 67349)
 
*** ChampSim Multicore Out-of-Order Simulator ***

Warmup Instructions: 50000000
Simulation Instructions: 200000000
Number of CPUs: 1
LLC sets: 2048
LLC ways: 16
Off-chip DRAM Size: 4096 MB Channels: 1 Width: 64-bit Data Rate: 6400 MT/s
argv[0]: ./ChampSim/Berti/bin/tagescl8kb-no-vberti-no-no-no-no-no-lru-lru-lru-srrip-drrip-lru-lru-lru-1core-no
argv[1]: -warmup_instructions
argv[2]: 50000000
argv[3]: -simulation_instructions
argv[4]: 200000000
argv[5]: -traces
argv[6]: traces/spec2k17_ten/603.bwaves_s-5359B.champsimtrace.xz
CPU 0 runs traces/spec2k17_ten/603.bwaves_s-5359B.champsimtrace.xz
.xz
CPU 0 Tage branch predictor
BTB has LRU replacement policy
ITLB has LRU replacement policy
DTLB has LRU replacement policy
STLB has LRU replacement policy
L1I has LRU replacement policy
History Sets: 8
History Ways: 16
BERTI Size: 16
BERTI Stride Size: 16
L1D has LRU replacement policy
Initialize SRRIP state for L2C
Initialize DRRIP state for LLC
Heartbeat CPU 0 instructions: 10000002 cycles: 2976040 heartbeat IPC: 3.36017 cumulative IPC: 3.36017 (Simulation time: 0 hr 2 min 48 sec) 
Heartbeat CPU 0 instructions: 20000003 cycles: 5903220 heartbeat IPC: 3.41626 cumulative IPC: 3.38798 (Simulation time: 0 hr 5 min 43 sec) 
Heartbeat CPU 0 instructions: 30000000 cycles: 8862902 heartbeat IPC: 3.37874 cumulative IPC: 3.3849 (Simulation time: 0 hr 13 min 10 sec) 
Heartbeat CPU 0 instructions: 40000000 cycles: 11837854 heartbeat IPC: 3.3614 cumulative IPC: 3.37899 (Simulation time: 0 hr 15 min 17 sec) 
Heartbeat CPU 0 instructions: 50000002 cycles: 14813285 heartbeat IPC: 3.36086 cumulative IPC: 3.37535 (Simulation time: 0 hr 18 min 17 sec) 

Warmup complete CPU 0 instructions: 50000002 cycles: 14813285 (Simulation time: 0 hr 18 min 17 sec) 

Heartbeat CPU 0 instructions: 60000001 cycles: 26662639 heartbeat IPC: 0.843928 cumulative IPC: 0.843928 (Simulation time: 0 hr 21 min 43 sec) 
Heartbeat CPU 0 instructions: 70000000 cycles: 38539780 heartbeat IPC: 0.841953 cumulative IPC: 0.842939 (Simulation time: 0 hr 25 min 47 sec) 
Heartbeat CPU 0 instructions: 80000001 cycles: 50423434 heartbeat IPC: 0.841492 cumulative IPC: 0.842456 (Simulation time: 0 hr 30 min 28 sec) 
Heartbeat CPU 0 instructions: 90000002 cycles: 62307661 heartbeat IPC: 0.841452 cumulative IPC: 0.842205 (Simulation time: 0 hr 34 min 34 sec) 
Heartbeat CPU 0 instructions: 100000001 cycles: 74191422 heartbeat IPC: 0.841484 cumulative IPC: 0.842061 (Simulation time: 0 hr 37 min 47 sec) 
Heartbeat CPU 0 instructions: 110000000 cycles: 86075871 heartbeat IPC: 0.841436 cumulative IPC: 0.841956 (Simulation time: 0 hr 42 min 59 sec) 
Heartbeat CPU 0 instructions: 120000003 cycles: 97973807 heartbeat IPC: 0.840482 cumulative IPC: 0.841746 (Simulation time: 0 hr 46 min 10 sec) 
Heartbeat CPU 0 instructions: 130000001 cycles: 109890955 heartbeat IPC: 0.839127 cumulative IPC: 0.841417 (Simulation time: 0 hr 53 min 6 sec) 
Heartbeat CPU 0 instructions: 140000001 cycles: 121808312 heartbeat IPC: 0.839112 cumulative IPC: 0.841161 (Simulation time: 0 hr 59 min 8 sec) 
Heartbeat CPU 0 instructions: 150000000 cycles: 133715879 heartbeat IPC: 0.839802 cumulative IPC: 0.841025 (Simulation time: 1 hr 4 min 46 sec) 
Heartbeat CPU 0 instructions: 160000003 cycles: 145665906 heartbeat IPC: 0.836818 cumulative IPC: 0.84064 (Simulation time: 1 hr 10 min 47 sec) 
Heartbeat CPU 0 instructions: 170000000 cycles: 157606552 heartbeat IPC: 0.837475 cumulative IPC: 0.840376 (Simulation time: 1 hr 16 min 15 sec) 
Heartbeat CPU 0 instructions: 180000001 cycles: 169589506 heartbeat IPC: 0.834519 cumulative IPC: 0.839922 (Simulation time: 1 hr 19 min 53 sec) 
Heartbeat CPU 0 instructions: 190000002 cycles: 181572936 heartbeat IPC: 0.834486 cumulative IPC: 0.839532 (Simulation time: 1 hr 22 min 13 sec) 
Heartbeat CPU 0 instructions: 200000000 cycles: 193659066 heartbeat IPC: 0.827395 cumulative IPC: 0.838711 (Simulation time: 1 hr 28 min 17 sec) 
Heartbeat CPU 0 instructions: 210000000 cycles: 205730109 heartbeat IPC: 0.828429 cumulative IPC: 0.838061 (Simulation time: 1 hr 33 min 49 sec) 
Heartbeat CPU 0 instructions: 220000000 cycles: 217825990 heartbeat IPC: 0.826728 cumulative IPC: 0.837386 (Simulation time: 1 hr 38 min 12 sec) 
Heartbeat CPU 0 instructions: 230000002 cycles: 229831752 heartbeat IPC: 0.832934 cumulative IPC: 0.837137 (Simulation time: 1 hr 42 min 45 sec) 
Heartbeat CPU 0 instructions: 240000001 cycles: 241830355 heartbeat IPC: 0.83343 cumulative IPC: 0.836941 (Simulation time: 1 hr 45 min 20 sec) 
Heartbeat CPU 0 instructions: 250000000 cycles: 253844660 heartbeat IPC: 0.832341 cumulative IPC: 0.83671 (Simulation time: 1 hr 49 min 57 sec) 
Finished CPU 0 instructions: 200000002 cycles: 239031376 cumulative IPC: 0.83671 (Simulation time: 1 hr 49 min 57 sec) 

ChampSim completed all CPUs

Region of Interest Statistics

CPU 0 cumulative IPC: 0.83671 instructions: 200000002 cycles: 239031376
ITLB TOTAL     ACCESS:   37516829  HIT:   37516829  MISS:          0  HIT %:        100  MISS %:          0   MPKI: 0
ITLB LOAD TRANSLATION ACCESS:   37516829  HIT:   37516829  MISS:          0  HIT %:        100  MISS %:          0   MPKI: 0
ITLB PREFETCH  REQUESTED:          0  ISSUED:          0  USEFUL:          0  USELESS:          0
ITLB USEFUL LOAD PREFETCHES:          0 PREFETCH ISSUED TO LOWER LEVEL:          0  ACCURACY: -nan
ITLB TIMELY PREFETCHES:          0 LATE PREFETCHES: 0 DROPPED PREFETCHES: 0
ITLB PREFETCHES SAME FILL-ORIGIN LEVEL: 0 DIFFERENT FILL-ORIGIN LEVEL: 0
ITLB AVERAGE MISS LATENCY: -nan cycles
ITLB RQ	ACCESS:   43651899	FORWARD:          0	MERGED:    6135071	TO_CACHE:   37516828

DTLB TOTAL     ACCESS:   27737848  HIT:   27737647  MISS:        201  HIT %:    99.9993  MISS %: 0.000724642   MPKI: 0.001005
DTLB LOAD TRANSLATION ACCESS:   27737848  HIT:   27737647  MISS:        201  HIT %:    99.9993  MISS %: 0.000724642   MPKI: 0.001005
DTLB PREFETCH  REQUESTED:          0  ISSUED:          0  USEFUL:          0  USELESS:          0
DTLB USEFUL LOAD PREFETCHES:          0 PREFETCH ISSUED TO LOWER LEVEL:          0  ACCURACY: -nan
DTLB TIMELY PREFETCHES:          0 LATE PREFETCHES: 0 DROPPED PREFETCHES: 0
DTLB PREFETCHES SAME FILL-ORIGIN LEVEL: 0 DIFFERENT FILL-ORIGIN LEVEL: 0
DTLB AVERAGE MISS LATENCY: 132.328 cycles
DTLB RQ	ACCESS:   38315910	FORWARD:          0	MERGED:   10577701	TO_CACHE:   27738209

STLB TOTAL     ACCESS:     551167  HIT:     550967  MISS:        200  HIT %:    99.9637  MISS %:  0.0362866   MPKI: 0.001
STLB LOAD TRANSLATION ACCESS:        201  HIT:          1  MISS:        200  HIT %:   0.497512  MISS %:    99.5025   MPKI: 0.001
STLB TRANSLATION FROM L1D PREFETCHER ACCESS:     550966  HIT:     550966  MISS:          0  HIT %:        100  MISS %:          0   MPKI: 0
STLB PREFETCH  REQUESTED:          0  ISSUED:          0  USEFUL:          0  USELESS:          0
STLB USEFUL LOAD PREFETCHES:          0 PREFETCH ISSUED TO LOWER LEVEL:          0  ACCURACY: -nan
STLB TIMELY PREFETCHES:          0 LATE PREFETCHES: 20 DROPPED PREFETCHES: 3614
STLB PREFETCHES SAME FILL-ORIGIN LEVEL: 0 DIFFERENT FILL-ORIGIN LEVEL: 0
STLB AVERAGE MISS LATENCY: 124.87 cycles
STLB RQ	ACCESS:     690706	FORWARD:          0	MERGED:     135893	TO_CACHE:     554813

STLB Hit, L1D data hit: 0
STLB Hit, L2C data hit: 0
STLB Hit, LLC data hit: 0
STLB Hit, LLC data miss: 0
STLB STLB hints to L2: 0
L1D TOTAL     ACCESS:   38882641  HIT:   38869546  MISS:      13095  HIT %:    99.9663  MISS %:  0.0336783   MPKI: 0.065475
L1D LOAD      ACCESS:   31004725  HIT:   31004397  MISS:        328  HIT %:    99.9989  MISS %:  0.0010579   MPKI: 0.00164
L1D RFO       ACCESS:    7246398  HIT:    7234741  MISS:      11657  HIT %:    99.8391  MISS %:   0.160866   MPKI: 0.058285
L1D PREFETCH  ACCESS:     631518  HIT:     630408  MISS:       1110  HIT %:    99.8242  MISS %:   0.175767   MPKI: 0.00555
L1D PREFETCH  REQUESTED:    1381965  ISSUED:    1381277  USEFUL:       1065  USELESS:         39
L1D USEFUL LOAD PREFETCHES:       1065 PREFETCH ISSUED TO LOWER LEVEL:      48662  ACCURACY: 2.18857
L1D TIMELY PREFETCHES:       1065 LATE PREFETCHES: 0 DROPPED PREFETCHES: 11430
L1D PREFETCHES SAME FILL-ORIGIN LEVEL: 1138 DIFFERENT FILL-ORIGIN LEVEL: 47524
L1D AVERAGE MISS LATENCY: 156.887 cycles
L1D RQ	ACCESS:   49635603	FORWARD:          0	MERGED:   18559015	TO_CACHE:   31004963
L1D WQ	ACCESS:    7419326	FORWARD:      71716	MERGED:     108379	TO_CACHE:    7310947
L1D PQ	ACCESS:     690772	FORWARD:          0	MERGED:        176	TO_CACHE:     690505

L1D UNIQUE REGIONS ACCESSED: 0
L1D REGIONS CONFLICTS: 0
L1D Cross Page Prefetch Requests: 99070
L1D Same Page Prefetch Requests: 902766
L1D ROI Sum of L1D PQ occupancy: 9678916
L1D PREFETCHES PUSHED FROM L2C: 0
L1I TOTAL     ACCESS:   43651899  HIT:   43651899  MISS:          0  HIT %:        100  MISS %:          0   MPKI: 0
L1I LOAD      ACCESS:   43651899  HIT:   43651899  MISS:          0  HIT %:        100  MISS %:          0   MPKI: 0
L1I PREFETCH  REQUESTED:          0  ISSUED:          0  USEFUL:          0  USELESS:          0
L1I USEFUL LOAD PREFETCHES:          0 PREFETCH ISSUED TO LOWER LEVEL:          0  ACCURACY: -nan
L1I TIMELY PREFETCHES:          0 LATE PREFETCHES: 0 DROPPED PREFETCHES: 0
L1I PREFETCHES SAME FILL-ORIGIN LEVEL: 0 DIFFERENT FILL-ORIGIN LEVEL: 0
L1I AVERAGE MISS LATENCY: -nan cycles
L1I RQ	ACCESS:   74485000	FORWARD:          0	MERGED:   30833101	TO_CACHE:   43651899

BTB TOTAL     ACCESS:   27912721  HIT:   27764857  MISS:     147864  HIT %:    99.4703  MISS %:   0.529737   MPKI: 0.73932
BTB BRANCH_DIRECT_JUMP	ACCESS:    2180748  HIT:    2180701  MISS:         47
BTB BRANCH_INDIRECT	ACCESS:      75362  HIT:      75359  MISS:          3
BTB BRANCH_CONDITIONAL	ACCESS:   25101520  HIT:   25101370  MISS:        150
BTB BRANCH_DIRECT_CALL	ACCESS:     277545  HIT:     277486  MISS:         59
BTB BRANCH_INDIRECT_CALL	ACCESS:          0  HIT:          0  MISS:          0
BTB BRANCH_RETURN	ACCESS:     277546  HIT:     129941  MISS:     147605
BTB BRANCH_OTHER ACCESS:          0  HIT:          0  MISS:          0

L2C TOTAL     ACCESS:      75626  HIT:      62698  MISS:      12928  HIT %:    82.9054  MISS %:    17.0946   MPKI: 0.06464
L2C LOAD      ACCESS:        328  HIT:        249  MISS:         79  HIT %:    75.9146  MISS %:    24.0854   MPKI: 0.000395
L2C DATA LOAD MPKI: 0.000395
L2C INSTRUCTION LOAD MPKI: 0
L2C RFO       ACCESS:      11629  HIT:       1267  MISS:      10362  HIT %:    10.8952  MISS %:    89.1048   MPKI: 0.05181
L2C PREFETCH  ACCESS:      48146  HIT:      45735  MISS:       2411  HIT %:    94.9923  MISS %:    5.00768   MPKI: 0.012055
L2C DATA PREFETCH MPKI: 0.012055
L2C INSTRUCTION PREFETCH MPKI: 0
L2C WRITEBACK ACCESS:      11689  HIT:      11640  MISS:         49  HIT %:    99.5808  MISS %:   0.419198   MPKI: 0.000245
L2C LOAD TRANSLATION ACCESS:        200  HIT:        187  MISS:         13  HIT %:       93.5  MISS %:        6.5   MPKI: 6.5e-05
L2C TRANSLATION FROM L1D PREFETCHER ACCESS:       3634  HIT:       3620  MISS:         14  HIT %:    99.6147  MISS %:    0.38525   MPKI: 7e-05
L2C PREFETCH  REQUESTED:          0  ISSUED:          0  USEFUL:       1324  USELESS:        906
L2C USEFUL LOAD PREFETCHES:       1324 PREFETCH ISSUED TO LOWER LEVEL:       2915  ACCURACY: 45.4202
L2C TIMELY PREFETCHES:       1324 LATE PREFETCHES: 504 DROPPED PREFETCHES: 0
L2C PREFETCHES SAME FILL-ORIGIN LEVEL: 2748 DIFFERENT FILL-ORIGIN LEVEL: 0
L2C AVERAGE MISS LATENCY: 176.285 cycles
L2C RQ	ACCESS:      15791	FORWARD:          0	MERGED:          0	TO_CACHE:      15791
L2C WQ	ACCESS:      11689	FORWARD:          0	MERGED:          0	TO_CACHE:      11689
L2C PQ	ACCESS:      48662	FORWARD:          0	MERGED:          0	TO_CACHE:      48662

L2C Instructions Evicting Data 0
L2C Translations Evicting Data 27
L2C Data Evicting Data 12824
L2C Instructions Evicting Instructions 0
L2C Translations Evicting Instructions 0
L2C Data Evicting Instructions 2
L2C Instructions Evicting Translations 0
L2C Translations Evicting Translations 0
L2C Data Evicting Translations 26
L2C Dense regions hint from L2: 0
PSCL5 TOTAL     ACCESS:       3834  HIT:       3834  MISS:          0  HIT %:        100  MISS %:          0   MPKI: 0
PSCL5 LOAD TRANSLATION ACCESS:        200  HIT:        200  MISS:          0  HIT %:        100  MISS %:          0   MPKI: 0
PSCL5 TRANSLATION FROM L1D PREFETCHER ACCESS:       3634  HIT:       3634  MISS:          0  HIT %:        100  MISS %:          0   MPKI: 0
PSCL5 PREFETCH  REQUESTED:          0  ISSUED:          0  USEFUL:          0  USELESS:          0
PSCL5 USEFUL LOAD PREFETCHES:          0 PREFETCH ISSUED TO LOWER LEVEL:          0  ACCURACY: -nan
PSCL5 TIMELY PREFETCHES:          0 LATE PREFETCHES: 0 DROPPED PREFETCHES: 0
PSCL5 PREFETCHES SAME FILL-ORIGIN LEVEL: 0 DIFFERENT FILL-ORIGIN LEVEL: 0

PSCL4 TOTAL     ACCESS:       3834  HIT:       3834  MISS:          0  HIT %:        100  MISS %:          0   MPKI: 0
PSCL4 LOAD TRANSLATION ACCESS:        200  HIT:        200  MISS:          0  HIT %:        100  MISS %:          0   MPKI: 0
PSCL4 TRANSLATION FROM L1D PREFETCHER ACCESS:       3634  HIT:       3634  MISS:          0  HIT %:        100  MISS %:          0   MPKI: 0
PSCL4 PREFETCH  REQUESTED:          0  ISSUED:          0  USEFUL:          0  USELESS:          0
PSCL4 USEFUL LOAD PREFETCHES:          0 PREFETCH ISSUED TO LOWER LEVEL:          0  ACCURACY: -nan
PSCL4 TIMELY PREFETCHES:          0 LATE PREFETCHES: 0 DROPPED PREFETCHES: 0
PSCL4 PREFETCHES SAME FILL-ORIGIN LEVEL: 0 DIFFERENT FILL-ORIGIN LEVEL: 0

PSCL3 TOTAL     ACCESS:       3834  HIT:       3834  MISS:          0  HIT %:        100  MISS %:          0   MPKI: 0
PSCL3 LOAD TRANSLATION ACCESS:        200  HIT:        200  MISS:          0  HIT %:        100  MISS %:          0   MPKI: 0
PSCL3 TRANSLATION FROM L1D PREFETCHER ACCESS:       3634  HIT:       3634  MISS:          0  HIT %:        100  MISS %:          0   MPKI: 0
PSCL3 PREFETCH  REQUESTED:          0  ISSUED:          0  USEFUL:          0  USELESS:          0
PSCL3 USEFUL LOAD PREFETCHES:          0 PREFETCH ISSUED TO LOWER LEVEL:          0  ACCURACY: -nan
PSCL3 TIMELY PREFETCHES:          0 LATE PREFETCHES: 0 DROPPED PREFETCHES: 0
PSCL3 PREFETCHES SAME FILL-ORIGIN LEVEL: 0 DIFFERENT FILL-ORIGIN LEVEL: 0

PSCL2 TOTAL     ACCESS:       3834  HIT:       3834  MISS:          0  HIT %:        100  MISS %:          0   MPKI: 0
PSCL2 LOAD TRANSLATION ACCESS:        200  HIT:        200  MISS:          0  HIT %:        100  MISS %:          0   MPKI: 0
PSCL2 TRANSLATION FROM L1D PREFETCHER ACCESS:       3634  HIT:       3634  MISS:          0  HIT %:        100  MISS %:          0   MPKI: 0
PSCL2 PREFETCH  REQUESTED:          0  ISSUED:          0  USEFUL:          0  USELESS:          0
PSCL2 USEFUL LOAD PREFETCHES:          0 PREFETCH ISSUED TO LOWER LEVEL:          0  ACCURACY: -nan
PSCL2 TIMELY PREFETCHES:          0 LATE PREFETCHES: 0 DROPPED PREFETCHES: 0
PSCL2 PREFETCHES SAME FILL-ORIGIN LEVEL: 0 DIFFERENT FILL-ORIGIN LEVEL: 0

LLC TOTAL     ACCESS:      24702  HIT:      11660  MISS:      13042  HIT %:    47.2027  MISS %:    52.7973   MPKI: 0.06521
LLC LOAD      ACCESS:         79  HIT:          3  MISS:         76  HIT %:    3.79747  MISS %:    96.2025   MPKI: 0.00038
LLC RFO       ACCESS:       9858  HIT:          4  MISS:       9854  HIT %:  0.0405762  MISS %:    99.9594   MPKI: 0.04927
LLC PREFETCH  ACCESS:       2915  HIT:         10  MISS:       2905  HIT %:   0.343053  MISS %:    99.6569   MPKI: 0.014525
LLC WRITEBACK ACCESS:      11823  HIT:      11642  MISS:        181  HIT %:    98.4691  MISS %:    1.53091   MPKI: 0.000905
LLC LOAD TRANSLATION ACCESS:         13  HIT:          1  MISS:         12  HIT %:    7.69231  MISS %:    92.3077   MPKI: 6e-05
LLC TRANSLATION FROM L1D PREFETCHER ACCESS:         14  HIT:          0  MISS:         14  HIT %:          0  MISS %:        100   MPKI: 7e-05
LLC PREFETCH  REQUESTED:          0  ISSUED:          0  USEFUL:          4  USELESS:        844
LLC USEFUL LOAD PREFETCHES:          4 PREFETCH ISSUED TO LOWER LEVEL:       2905  ACCURACY: 0.137694
LLC TIMELY PREFETCHES:          4 LATE PREFETCHES: 0 DROPPED PREFETCHES: 0
LLC PREFETCHES SAME FILL-ORIGIN LEVEL: 0 DIFFERENT FILL-ORIGIN LEVEL: 0
LLC AVERAGE MISS LATENCY: 144.968 cycles
LLC RQ	ACCESS:       9964	FORWARD:          0	MERGED:          0	TO_CACHE:       9964
LLC WQ	ACCESS:      11823	FORWARD:          0	MERGED:          0	TO_CACHE:      11823
LLC PQ	ACCESS:       2915	FORWARD:          0	MERGED:          0	TO_CACHE:       2915

LLC Dense regions hint to LLC: 0

RAW hits: 403300
Loads Generated: 50038903
Loads sent to L1D: 49635603
Stores Generated: 7419323
Stores sent to L1D: 7419326
Major fault: 0 Minor fault: 723
Allocated PAGES: 723

DRAM Statistics
 CHANNEL 0
 RQ ROW_BUFFER_HIT:       4100  ROW_BUFFER_MISS:       8761
 DBUS_CONGESTED:          2
 WQ ROW_BUFFER_HIT:        788  ROW_BUFFER_MISS:       8579  FULL:          0

 AVG_CONGESTED_CYCLE: 7
 All warmup complete: 2
Channel 0 Bank busy for read cycles: 0
Channel 0 Bank busy for write cycles: 0
Channel 0
Rank 0
0banks busy for read cycles: 237730790
0banks busy for write cycles: 2785
1banks busy for read cycles: 317811
1banks busy for write cycles: 96727
2banks busy for read cycles: 266982
2banks busy for write cycles: 111149
3banks busy for read cycles: 180097
3banks busy for write cycles: 227543
4banks busy for read cycles: 10732
4banks busy for write cycles: 51690
5banks busy for read cycles: 3628
5banks busy for write cycles: 8093
6banks busy for read cycles: 2868
6banks busy for write cycles: 3753
7banks busy for read cycles: 2808
7banks busy for write cycles: 2895
8banks busy for read cycles: 3649
8banks busy for write cycles: 7377

CPU 0 Branch Prediction Accuracy: 99.9637% MPKI: 0.047785 Average ROB Occupancy at Mispredict: 58.542
Branch types
NOT_BRANCH: 170868137 85.4341%
BRANCH_DIRECT_JUMP: 2180748 1.09037%
BRANCH_INDIRECT: 75362 0.037681%
BRANCH_CONDITIONAL: 26320336 13.1602%
BRANCH_DIRECT_CALL: 277545 0.138772%
BRANCH_INDIRECT_CALL: 0 0%
BRANCH_RETURN: 277546 0.138773%
BRANCH_OTHER: 0 0%

DRAM PAGES: 1048576
Allocated PAGES: 723
