 (TOTAL 523355 bits 511 Kbits) 
*** ChampSim Multicore Out-of-Order Simulator ***

Warmup Instructions: 50000000
Simulation Instructions: 200000000
Number of CPUs: 1
LLC sets: 2048
LLC ways: 16
Off-chip DRAM Size: 4096 MB Channels: 1 Width: 64-bit Data Rate: 6400 MT/s
argv[0]: ./ChampSim/Berti/bin/tagescl-no-vberti-no-no-no-no-no-lru-lru-lru-srrip-drrip-lru-lru-lru-1core-no
argv[1]: -warmup_instructions
argv[2]: 50000000
argv[3]: -simulation_instructions
argv[4]: 200000000
argv[5]: -traces
argv[6]: traces/spec2k17_ten/605.mcf_s-1152B.champsimtrace.xz
CPU 0 runs traces/spec2k17_ten/605.mcf_s-1152B.champsimtrace.xz
.xz
CPU 0 Tage branch predictor
BTB has LRU replacement policy
ITLB has LRU replacement policy
DTLB has LRU replacement policy
STLB has LRU replacement policy
L1I has LRU replacement policy
History Sets: 8
History Ways: 16
BERTI Size: 16
BERTI Stride Size: 16
L1D has LRU replacement policy
Initialize SRRIP state for L2C
Initialize DRRIP state for LLC
Heartbeat CPU 0 instructions: 10000001 cycles: 3329678 heartbeat IPC: 3.00329 cumulative IPC: 3.00329 (Simulation time: 0 hr 8 min 28 sec) 
Heartbeat CPU 0 instructions: 20000000 cycles: 6660334 heartbeat IPC: 3.00241 cumulative IPC: 3.00285 (Simulation time: 0 hr 20 min 35 sec) 
Heartbeat CPU 0 instructions: 30000001 cycles: 9987578 heartbeat IPC: 3.00549 cumulative IPC: 3.00373 (Simulation time: 0 hr 33 min 53 sec) 
Heartbeat CPU 0 instructions: 40000001 cycles: 13318221 heartbeat IPC: 3.00242 cumulative IPC: 3.0034 (Simulation time: 0 hr 44 min 48 sec) 
Heartbeat CPU 0 instructions: 50000001 cycles: 16652288 heartbeat IPC: 2.99934 cumulative IPC: 3.00259 (Simulation time: 0 hr 56 min 9 sec) 

Warmup complete CPU 0 instructions: 50000001 cycles: 16652288 (Simulation time: 0 hr 56 min 9 sec) 

Heartbeat CPU 0 instructions: 60000001 cycles: 50157094 heartbeat IPC: 0.298465 cumulative IPC: 0.298465 (Simulation time: 1 hr 7 min 10 sec) 
Heartbeat CPU 0 instructions: 70000001 cycles: 83864413 heartbeat IPC: 0.296671 cumulative IPC: 0.297565 (Simulation time: 1 hr 19 min 59 sec) 
Heartbeat CPU 0 instructions: 80000001 cycles: 117277803 heartbeat IPC: 0.299281 cumulative IPC: 0.298135 (Simulation time: 1 hr 31 min 45 sec) 
Heartbeat CPU 0 instructions: 90000003 cycles: 150843504 heartbeat IPC: 0.297923 cumulative IPC: 0.298082 (Simulation time: 1 hr 43 min 46 sec) 
Heartbeat CPU 0 instructions: 100000001 cycles: 184448307 heartbeat IPC: 0.297576 cumulative IPC: 0.297981 (Simulation time: 1 hr 55 min 5 sec) 
Heartbeat CPU 0 instructions: 110000000 cycles: 217988228 heartbeat IPC: 0.298152 cumulative IPC: 0.298009 (Simulation time: 2 hr 6 min 32 sec) 
Heartbeat CPU 0 instructions: 120000002 cycles: 251584787 heartbeat IPC: 0.29765 cumulative IPC: 0.297958 (Simulation time: 2 hr 17 min 2 sec) 
Heartbeat CPU 0 instructions: 130000002 cycles: 285201290 heartbeat IPC: 0.297473 cumulative IPC: 0.297897 (Simulation time: 2 hr 28 min 45 sec) 
Heartbeat CPU 0 instructions: 140000002 cycles: 319128650 heartbeat IPC: 0.294747 cumulative IPC: 0.297544 (Simulation time: 2 hr 40 min 52 sec) 
Heartbeat CPU 0 instructions: 150000001 cycles: 352334486 heartbeat IPC: 0.301152 cumulative IPC: 0.297901 (Simulation time: 2 hr 52 min 19 sec) 
Heartbeat CPU 0 instructions: 160000000 cycles: 385126317 heartbeat IPC: 0.304954 cumulative IPC: 0.298528 (Simulation time: 3 hr 5 min 4 sec) 
Heartbeat CPU 0 instructions: 170000001 cycles: 418305541 heartbeat IPC: 0.301393 cumulative IPC: 0.298765 (Simulation time: 3 hr 20 min 6 sec) 
Heartbeat CPU 0 instructions: 180000000 cycles: 450843235 heartbeat IPC: 0.307336 cumulative IPC: 0.299407 (Simulation time: 3 hr 34 min 52 sec) 
Heartbeat CPU 0 instructions: 190000000 cycles: 483954025 heartbeat IPC: 0.302016 cumulative IPC: 0.299592 (Simulation time: 3 hr 48 min 3 sec) 
Heartbeat CPU 0 instructions: 200000001 cycles: 517431776 heartbeat IPC: 0.298706 cumulative IPC: 0.299533 (Simulation time: 4 hr 0 min 22 sec) 
Heartbeat CPU 0 instructions: 210000002 cycles: 551123757 heartbeat IPC: 0.296807 cumulative IPC: 0.299361 (Simulation time: 4 hr 9 min 37 sec) 
Heartbeat CPU 0 instructions: 220000000 cycles: 585415517 heartbeat IPC: 0.291615 cumulative IPC: 0.298894 (Simulation time: 4 hr 18 min 9 sec) 
Heartbeat CPU 0 instructions: 230000002 cycles: 620397879 heartbeat IPC: 0.285858 cumulative IPC: 0.298139 (Simulation time: 4 hr 26 min 7 sec) 
Heartbeat CPU 0 instructions: 240000000 cycles: 658180568 heartbeat IPC: 0.264671 cumulative IPC: 0.296168 (Simulation time: 4 hr 33 min 8 sec) 
Heartbeat CPU 0 instructions: 250000001 cycles: 693746463 heartbeat IPC: 0.281168 cumulative IPC: 0.29538 (Simulation time: 4 hr 38 min 19 sec) 
Finished CPU 0 instructions: 200000000 cycles: 677094175 cumulative IPC: 0.29538 (Simulation time: 4 hr 38 min 19 sec) 

ChampSim completed all CPUs

Region of Interest Statistics

CPU 0 cumulative IPC: 0.29538 instructions: 200000000 cycles: 677094175
ITLB TOTAL     ACCESS:   34561000  HIT:   34561000  MISS:          0  HIT %:        100  MISS %:          0   MPKI: 0
ITLB LOAD TRANSLATION ACCESS:   34561000  HIT:   34561000  MISS:          0  HIT %:        100  MISS %:          0   MPKI: 0
ITLB PREFETCH  REQUESTED:          0  ISSUED:          0  USEFUL:          0  USELESS:          0
ITLB USEFUL LOAD PREFETCHES:          0 PREFETCH ISSUED TO LOWER LEVEL:          0  ACCURACY: -nan
ITLB TIMELY PREFETCHES:          0 LATE PREFETCHES: 0 DROPPED PREFETCHES: 0
ITLB PREFETCHES SAME FILL-ORIGIN LEVEL: 0 DIFFERENT FILL-ORIGIN LEVEL: 0
ITLB AVERAGE MISS LATENCY: -nan cycles
ITLB RQ	ACCESS:   37099838	FORWARD:          0	MERGED:    2538838	TO_CACHE:   34561000

DTLB TOTAL     ACCESS:   54666718  HIT:   47358671  MISS:    7308047  HIT %:    86.6316  MISS %:    13.3684   MPKI: 36.5402
DTLB LOAD TRANSLATION ACCESS:   54666718  HIT:   47358671  MISS:    7308047  HIT %:    86.6316  MISS %:    13.3684   MPKI: 36.5402
DTLB PREFETCH  REQUESTED:          0  ISSUED:          0  USEFUL:          0  USELESS:          0
DTLB USEFUL LOAD PREFETCHES:          0 PREFETCH ISSUED TO LOWER LEVEL:          0  ACCURACY: -nan
DTLB TIMELY PREFETCHES:          0 LATE PREFETCHES: 0 DROPPED PREFETCHES: 0
DTLB PREFETCHES SAME FILL-ORIGIN LEVEL: 0 DIFFERENT FILL-ORIGIN LEVEL: 0
DTLB AVERAGE MISS LATENCY: 10.8518 cycles
DTLB RQ	ACCESS:   66844088	FORWARD:          0	MERGED:   11760162	TO_CACHE:   55083926

STLB TOTAL     ACCESS:   13420449  HIT:   13319543  MISS:     100906  HIT %:    99.2481  MISS %:   0.751882   MPKI: 0.50453
STLB LOAD TRANSLATION ACCESS:    7308047  HIT:    7208023  MISS:     100024  HIT %:    98.6313  MISS %:    1.36868   MPKI: 0.50012
STLB TRANSLATION FROM L1D PREFETCHER ACCESS:    6112402  HIT:    6111520  MISS:        882  HIT %:    99.9856  MISS %:  0.0144297   MPKI: 0.00441
STLB PREFETCH  REQUESTED:          0  ISSUED:          0  USEFUL:        496  USELESS:        383
STLB USEFUL LOAD PREFETCHES:        496 PREFETCH ISSUED TO LOWER LEVEL:          0  ACCURACY: inf
STLB TIMELY PREFETCHES:        496 LATE PREFETCHES: 23613 DROPPED PREFETCHES: 1657089
STLB PREFETCHES SAME FILL-ORIGIN LEVEL: 0 DIFFERENT FILL-ORIGIN LEVEL: 0
STLB AVERAGE MISS LATENCY: 103.366 cycles
STLB RQ	ACCESS:   43215722	FORWARD:          0	MERGED:   27949642	TO_CACHE:   15266080

STLB Hit, L1D data hit: 0
STLB Hit, L2C data hit: 0
STLB Hit, LLC data hit: 0
STLB Hit, LLC data miss: 0
STLB STLB hints to L2: 0
L1D TOTAL     ACCESS:   89388733  HIT:   75420228  MISS:   13968505  HIT %:    84.3733  MISS %:    15.6267   MPKI: 69.8425
L1D LOAD      ACCESS:   49048977  HIT:   39262061  MISS:    9786916  HIT %:    80.0466  MISS %:    19.9534   MPKI: 48.9346
L1D RFO       ACCESS:   16707399  HIT:   16098407  MISS:     608992  HIT %:     96.355  MISS %:    3.64504   MPKI: 3.04496
L1D PREFETCH  ACCESS:   23632357  HIT:   20059760  MISS:    3572597  HIT %:    84.8826  MISS %:    15.1174   MPKI: 17.863
L1D PREFETCH  REQUESTED:   84131512  ISSUED:   78239645  USEFUL:    3552829  USELESS:      19771
L1D USEFUL LOAD PREFETCHES:    3552829 PREFETCH ISSUED TO LOWER LEVEL:    7622629  ACCURACY: 46.609
L1D TIMELY PREFETCHES:    3552829 LATE PREFETCHES: 193511 DROPPED PREFETCHES: 5283237
L1D PREFETCHES SAME FILL-ORIGIN LEVEL: 3766113 DIFFERENT FILL-ORIGIN LEVEL: 3856516
L1D AVERAGE MISS LATENCY: 69.2649 cycles
L1D RQ	ACCESS:   68213491	FORWARD:          0	MERGED:   17351102	TO_CACHE:   49137109
L1D WQ	ACCESS:   17802933	FORWARD:    1731554	MERGED:      95954	TO_CACHE:   17706979
L1D PQ	ACCESS:   42331970	FORWARD:          0	MERGED:    6418021	TO_CACHE:   35907675

L1D UNIQUE REGIONS ACCESSED: 0
L1D REGIONS CONFLICTS: 0
L1D Cross Page Prefetch Requests: 8305932
L1D Same Page Prefetch Requests: 44016311
L1D ROI Sum of L1D PQ occupancy: 760411371
L1D PREFETCHES PUSHED FROM L2C: 0
L1I TOTAL     ACCESS:   37099838  HIT:   37099836  MISS:          2  HIT %:        100  MISS %: 5.39086e-06   MPKI: 1e-05
L1I LOAD      ACCESS:   37099838  HIT:   37099836  MISS:          2  HIT %:        100  MISS %: 5.39086e-06   MPKI: 1e-05
L1I PREFETCH  REQUESTED:          0  ISSUED:          0  USEFUL:          0  USELESS:          0
L1I USEFUL LOAD PREFETCHES:          0 PREFETCH ISSUED TO LOWER LEVEL:          0  ACCURACY: -nan
L1I TIMELY PREFETCHES:          0 LATE PREFETCHES: 0 DROPPED PREFETCHES: 0
L1I PREFETCHES SAME FILL-ORIGIN LEVEL: 0 DIFFERENT FILL-ORIGIN LEVEL: 0
L1I AVERAGE MISS LATENCY: 214 cycles
L1I RQ	ACCESS:   55034267	FORWARD:          0	MERGED:   17934429	TO_CACHE:   37099838

BTB TOTAL     ACCESS:   49743903  HIT:   48131249  MISS:    1612654  HIT %:    96.7581  MISS %:    3.24191   MPKI: 8.06327
BTB BRANCH_DIRECT_JUMP	ACCESS:    5836928  HIT:    5836891  MISS:         37
BTB BRANCH_INDIRECT	ACCESS:          0  HIT:          0  MISS:          0
BTB BRANCH_CONDITIONAL	ACCESS:   36112456  HIT:   36112377  MISS:         79
BTB BRANCH_DIRECT_CALL	ACCESS:    3647056  HIT:    3647038  MISS:         18
BTB BRANCH_INDIRECT_CALL	ACCESS:     250202  HIT:     250194  MISS:          8
BTB BRANCH_RETURN	ACCESS:    3897261  HIT:    2284749  MISS:    1612512
BTB BRANCH_OTHER ACCESS:          0  HIT:          0  MISS:          0

L2C TOTAL     ACCESS:   19557849  HIT:    9224238  MISS:   10333611  HIT %:    47.1639  MISS %:    52.8361   MPKI: 51.6681
L2C LOAD      ACCESS:    9593382  HIT:    3385449  MISS:    6207933  HIT %:    35.2894  MISS %:    64.7106   MPKI: 31.0397
L2C DATA LOAD MPKI: 31.0397
L2C INSTRUCTION LOAD MPKI: 1e-05
L2C RFO       ACCESS:     608989  HIT:     561302  MISS:      47687  HIT %:    92.1695  MISS %:    7.83052   MPKI: 0.238435
L2C PREFETCH  ACCESS:    6634591  HIT:    2592073  MISS:    4042518  HIT %:    39.0691  MISS %:    60.9309   MPKI: 20.2126
L2C DATA PREFETCH MPKI: 20.2126
L2C INSTRUCTION PREFETCH MPKI: 0
L2C WRITEBACK ACCESS:     934887  HIT:     933046  MISS:       1841  HIT %:    99.8031  MISS %:   0.196922   MPKI: 0.009205
L2C LOAD TRANSLATION ACCESS:     100619  HIT:      76379  MISS:      24240  HIT %:    75.9091  MISS %:    24.0909   MPKI: 0.1212
L2C TRANSLATION FROM L1D PREFETCHER ACCESS:    1685381  HIT:    1675989  MISS:       9392  HIT %:    99.4427  MISS %:   0.557263   MPKI: 0.04696
L2C PREFETCH  REQUESTED:          0  ISSUED:          0  USEFUL:     499965  USELESS:    3552054
L2C USEFUL LOAD PREFETCHES:     499965 PREFETCH ISSUED TO LOWER LEVEL:    4110917  ACCURACY: 12.1619
L2C TIMELY PREFETCHES:     499965 LATE PREFETCHES: 68399 DROPPED PREFETCHES: 0
L2C PREFETCHES SAME FILL-ORIGIN LEVEL: 1400203 DIFFERENT FILL-ORIGIN LEVEL: 0
L2C AVERAGE MISS LATENCY: 90.153 cycles
L2C RQ	ACCESS:   11988399	FORWARD:          0	MERGED:          0	TO_CACHE:   11988371
L2C WQ	ACCESS:     934887	FORWARD:         28	MERGED:          0	TO_CACHE:     934887
L2C PQ	ACCESS:    7622616	FORWARD:          0	MERGED:       2482	TO_CACHE:    7620134

L2C Instructions Evicting Data 2
L2C Translations Evicting Data 33551
L2C Data Evicting Data 10264598
L2C Instructions Evicting Instructions 0
L2C Translations Evicting Instructions 0
L2C Data Evicting Instructions 2
L2C Instructions Evicting Translations 0
L2C Translations Evicting Translations 81
L2C Data Evicting Translations 33536
L2C Dense regions hint from L2: 0
PSCL5 TOTAL     ACCESS:    1781598  HIT:    1781598  MISS:          0  HIT %:        100  MISS %:          0   MPKI: 0
PSCL5 LOAD TRANSLATION ACCESS:     100014  HIT:     100014  MISS:          0  HIT %:        100  MISS %:          0   MPKI: 0
PSCL5 TRANSLATION FROM L1D PREFETCHER ACCESS:    1681584  HIT:    1681584  MISS:          0  HIT %:        100  MISS %:          0   MPKI: 0
PSCL5 PREFETCH  REQUESTED:          0  ISSUED:          0  USEFUL:          0  USELESS:          0
PSCL5 USEFUL LOAD PREFETCHES:          0 PREFETCH ISSUED TO LOWER LEVEL:          0  ACCURACY: -nan
PSCL5 TIMELY PREFETCHES:          0 LATE PREFETCHES: 0 DROPPED PREFETCHES: 0
PSCL5 PREFETCHES SAME FILL-ORIGIN LEVEL: 0 DIFFERENT FILL-ORIGIN LEVEL: 0

PSCL4 TOTAL     ACCESS:    1781598  HIT:    1781598  MISS:          0  HIT %:        100  MISS %:          0   MPKI: 0
PSCL4 LOAD TRANSLATION ACCESS:     100014  HIT:     100014  MISS:          0  HIT %:        100  MISS %:          0   MPKI: 0
PSCL4 TRANSLATION FROM L1D PREFETCHER ACCESS:    1681584  HIT:    1681584  MISS:          0  HIT %:        100  MISS %:          0   MPKI: 0
PSCL4 PREFETCH  REQUESTED:          0  ISSUED:          0  USEFUL:          0  USELESS:          0
PSCL4 USEFUL LOAD PREFETCHES:          0 PREFETCH ISSUED TO LOWER LEVEL:          0  ACCURACY: -nan
PSCL4 TIMELY PREFETCHES:          0 LATE PREFETCHES: 0 DROPPED PREFETCHES: 0
PSCL4 PREFETCHES SAME FILL-ORIGIN LEVEL: 0 DIFFERENT FILL-ORIGIN LEVEL: 0

PSCL3 TOTAL     ACCESS:    1781598  HIT:    1781598  MISS:          0  HIT %:        100  MISS %:          0   MPKI: 0
PSCL3 LOAD TRANSLATION ACCESS:     100014  HIT:     100014  MISS:          0  HIT %:        100  MISS %:          0   MPKI: 0
PSCL3 TRANSLATION FROM L1D PREFETCHER ACCESS:    1681584  HIT:    1681584  MISS:          0  HIT %:        100  MISS %:          0   MPKI: 0
PSCL3 PREFETCH  REQUESTED:          0  ISSUED:          0  USEFUL:          0  USELESS:          0
PSCL3 USEFUL LOAD PREFETCHES:          0 PREFETCH ISSUED TO LOWER LEVEL:          0  ACCURACY: -nan
PSCL3 TIMELY PREFETCHES:          0 LATE PREFETCHES: 0 DROPPED PREFETCHES: 0
PSCL3 PREFETCHES SAME FILL-ORIGIN LEVEL: 0 DIFFERENT FILL-ORIGIN LEVEL: 0

PSCL2 TOTAL     ACCESS:    1775062  HIT:    1774045  MISS:       1017  HIT %:    99.9427  MISS %:  0.0572938   MPKI: 0.005085
PSCL2 LOAD TRANSLATION ACCESS:     100042  HIT:      99025  MISS:       1017  HIT %:    98.9834  MISS %:    1.01657   MPKI: 0.005085
PSCL2 TRANSLATION FROM L1D PREFETCHER ACCESS:    1675020  HIT:    1675020  MISS:          0  HIT %:        100  MISS %:          0   MPKI: 0
PSCL2 PREFETCH  REQUESTED:          0  ISSUED:          0  USEFUL:          0  USELESS:          0
PSCL2 USEFUL LOAD PREFETCHES:          0 PREFETCH ISSUED TO LOWER LEVEL:          0  ACCURACY: -nan
PSCL2 TIMELY PREFETCHES:          0 LATE PREFETCHES: 0 DROPPED PREFETCHES: 0
PSCL2 PREFETCHES SAME FILL-ORIGIN LEVEL: 0 DIFFERENT FILL-ORIGIN LEVEL: 0

LLC TOTAL     ACCESS:   10485157  HIT:    5293903  MISS:    5191254  HIT %:    50.4895  MISS %:    49.5105   MPKI: 25.9563
LLC LOAD      ACCESS:    6139530  HIT:    5090920  MISS:    1048610  HIT %:    82.9204  MISS %:    17.0796   MPKI: 5.24305
LLC RFO       ACCESS:      47685  HIT:      43423  MISS:       4262  HIT %:    91.0622  MISS %:    8.93782   MPKI: 0.02131
LLC PREFETCH  ACCESS:    4110917  HIT:      19362  MISS:    4091555  HIT %:    0.47099  MISS %:     99.529   MPKI: 20.4578
LLC WRITEBACK ACCESS:     153393  HIT:     120908  MISS:      32485  HIT %:    78.8224  MISS %:    21.1776   MPKI: 0.162425
LLC LOAD TRANSLATION ACCESS:      24240  HIT:      18911  MISS:       5329  HIT %:    78.0157  MISS %:    21.9843   MPKI: 0.026645
LLC TRANSLATION FROM L1D PREFETCHER ACCESS:       9392  HIT:        379  MISS:       9013  HIT %:    4.03535  MISS %:    95.9647   MPKI: 0.045065
LLC PREFETCH  REQUESTED:          0  ISSUED:          0  USEFUL:     115719  USELESS:    3992820
LLC USEFUL LOAD PREFETCHES:     115719 PREFETCH ISSUED TO LOWER LEVEL:    4091555  ACCURACY: 2.82824
LLC TIMELY PREFETCHES:     115719 LATE PREFETCHES: 0 DROPPED PREFETCHES: 0
LLC PREFETCHES SAME FILL-ORIGIN LEVEL: 0 DIFFERENT FILL-ORIGIN LEVEL: 0
LLC AVERAGE MISS LATENCY: 119.846 cycles
LLC RQ	ACCESS:    6220853	FORWARD:          0	MERGED:          0	TO_CACHE:    6220847
LLC WQ	ACCESS:     153393	FORWARD:          6	MERGED:          0	TO_CACHE:     153393
LLC PQ	ACCESS:    4110917	FORWARD:          0	MERGED:          0	TO_CACHE:    4110917

LLC Dense regions hint to LLC: 0

RAW hits: 2439490
Loads Generated: 70652983
Loads sent to L1D: 68213491
Stores Generated: 17802933
Stores sent to L1D: 17802933
Major fault: 0 Minor fault: 80635
Allocated PAGES: 80635

DRAM Statistics
 CHANNEL 0
 RQ ROW_BUFFER_HIT:    3574020  ROW_BUFFER_MISS:    1584741
 DBUS_CONGESTED:       1761
 WQ ROW_BUFFER_HIT:      10425  ROW_BUFFER_MISS:      35838  FULL:          0

 AVG_CONGESTED_CYCLE: 4
 All warmup complete: 2
Channel 0 Bank busy for read cycles: 0
Channel 0 Bank busy for write cycles: 0
Channel 0
Rank 0
0banks busy for read cycles: 484395107
0banks busy for write cycles: 38238
1banks busy for read cycles: 87272358
1banks busy for write cycles: 7571805
2banks busy for read cycles: 42463773
2banks busy for write cycles: 893591
3banks busy for read cycles: 21290720
3banks busy for write cycles: 159647
4banks busy for read cycles: 11365832
4banks busy for write cycles: 47365
5banks busy for read cycles: 7554382
5banks busy for write cycles: 20961
6banks busy for read cycles: 5511122
6banks busy for write cycles: 13068
7banks busy for read cycles: 3751882
7banks busy for write cycles: 8696
8banks busy for read cycles: 4727184
8banks busy for write cycles: 8445

CPU 0 Branch Prediction Accuracy: 92.7731% MPKI: 13.7512 Average ROB Occupancy at Mispredict: 26.2354
Branch types
NOT_BRANCH: 148312359 74.1562%
BRANCH_DIRECT_JUMP: 5836928 2.91846%
BRANCH_INDIRECT: 0 0%
BRANCH_CONDITIONAL: 38055857 19.0279%
BRANCH_DIRECT_CALL: 3647056 1.82353%
BRANCH_INDIRECT_CALL: 250202 0.125101%
BRANCH_RETURN: 3897261 1.94863%
BRANCH_OTHER: 0 0%

DRAM PAGES: 1048576
Allocated PAGES: 80635
