 (TOTAL 523355 bits 511 Kbits) 
*** ChampSim Multicore Out-of-Order Simulator ***

Warmup Instructions: 50000000
Simulation Instructions: 200000000
Number of CPUs: 1
LLC sets: 2048
LLC ways: 16
Off-chip DRAM Size: 4096 MB Channels: 1 Width: 64-bit Data Rate: 6400 MT/s
argv[0]: ./ChampSim/Berti/bin/tagescl-no-vberti-no-no-no-no-no-lru-lru-lru-srrip-drrip-lru-lru-lru-1core-no
argv[1]: -warmup_instructions
argv[2]: 50000000
argv[3]: -simulation_instructions
argv[4]: 200000000
argv[5]: -traces
argv[6]: traces/spec2k17_ten/605.mcf_s-1536B.champsimtrace.xz
CPU 0 runs traces/spec2k17_ten/605.mcf_s-1536B.champsimtrace.xz
.xz
CPU 0 Tage branch predictor
BTB has LRU replacement policy
ITLB has LRU replacement policy
DTLB has LRU replacement policy
STLB has LRU replacement policy
L1I has LRU replacement policy
History Sets: 8
History Ways: 16
BERTI Size: 16
BERTI Stride Size: 16
L1D has LRU replacement policy
Initialize SRRIP state for L2C
Initialize DRRIP state for LLC
Heartbeat CPU 0 instructions: 10000003 cycles: 2840401 heartbeat IPC: 3.52063 cumulative IPC: 3.52063 (Simulation time: 0 hr 13 min 33 sec) 
Heartbeat CPU 0 instructions: 20000003 cycles: 5671397 heartbeat IPC: 3.53233 cumulative IPC: 3.52647 (Simulation time: 0 hr 24 min 48 sec) 
Heartbeat CPU 0 instructions: 30000001 cycles: 8514633 heartbeat IPC: 3.51712 cumulative IPC: 3.52335 (Simulation time: 0 hr 35 min 38 sec) 
Heartbeat CPU 0 instructions: 40000001 cycles: 11367982 heartbeat IPC: 3.50465 cumulative IPC: 3.51865 (Simulation time: 0 hr 46 min 56 sec) 
Heartbeat CPU 0 instructions: 50000003 cycles: 14234747 heartbeat IPC: 3.48825 cumulative IPC: 3.51253 (Simulation time: 0 hr 59 min 47 sec) 

Warmup complete CPU 0 instructions: 50000003 cycles: 14234747 (Simulation time: 0 hr 59 min 47 sec) 

Heartbeat CPU 0 instructions: 60000003 cycles: 52243823 heartbeat IPC: 0.263095 cumulative IPC: 0.263095 (Simulation time: 1 hr 18 min 39 sec) 
Heartbeat CPU 0 instructions: 70000000 cycles: 90376480 heartbeat IPC: 0.262242 cumulative IPC: 0.262668 (Simulation time: 1 hr 37 min 24 sec) 
Heartbeat CPU 0 instructions: 80000001 cycles: 128451514 heartbeat IPC: 0.262639 cumulative IPC: 0.262658 (Simulation time: 1 hr 54 min 47 sec) 
Heartbeat CPU 0 instructions: 90000000 cycles: 166698576 heartbeat IPC: 0.261458 cumulative IPC: 0.262357 (Simulation time: 2 hr 13 min 51 sec) 
Heartbeat CPU 0 instructions: 100000002 cycles: 204883904 heartbeat IPC: 0.261881 cumulative IPC: 0.262262 (Simulation time: 2 hr 32 min 13 sec) 
Heartbeat CPU 0 instructions: 110000000 cycles: 243164928 heartbeat IPC: 0.261226 cumulative IPC: 0.262089 (Simulation time: 2 hr 49 min 35 sec) 
Heartbeat CPU 0 instructions: 120000000 cycles: 281878391 heartbeat IPC: 0.258308 cumulative IPC: 0.261542 (Simulation time: 3 hr 8 min 53 sec) 
Heartbeat CPU 0 instructions: 130000003 cycles: 320250190 heartbeat IPC: 0.260608 cumulative IPC: 0.261425 (Simulation time: 3 hr 27 min 49 sec) 
Heartbeat CPU 0 instructions: 140000000 cycles: 358977483 heartbeat IPC: 0.258216 cumulative IPC: 0.261064 (Simulation time: 3 hr 45 min 58 sec) 
Heartbeat CPU 0 instructions: 150000001 cycles: 397632014 heartbeat IPC: 0.258702 cumulative IPC: 0.260826 (Simulation time: 4 hr 1 min 33 sec) 
Heartbeat CPU 0 instructions: 160000000 cycles: 436210115 heartbeat IPC: 0.259214 cumulative IPC: 0.260679 (Simulation time: 4 hr 14 min 49 sec) 
Heartbeat CPU 0 instructions: 170000002 cycles: 475023641 heartbeat IPC: 0.257642 cumulative IPC: 0.260423 (Simulation time: 4 hr 27 min 2 sec) 
Heartbeat CPU 0 instructions: 180000002 cycles: 513718675 heartbeat IPC: 0.258431 cumulative IPC: 0.260269 (Simulation time: 4 hr 36 min 8 sec) 
Heartbeat CPU 0 instructions: 190000000 cycles: 552532144 heartbeat IPC: 0.257642 cumulative IPC: 0.260079 (Simulation time: 4 hr 42 min 44 sec) 
Heartbeat CPU 0 instructions: 200000003 cycles: 591692218 heartbeat IPC: 0.255362 cumulative IPC: 0.259759 (Simulation time: 4 hr 47 min 21 sec) 
Heartbeat CPU 0 instructions: 210000000 cycles: 630858872 heartbeat IPC: 0.255319 cumulative IPC: 0.259477 (Simulation time: 4 hr 50 min 33 sec) 
Heartbeat CPU 0 instructions: 220000000 cycles: 670152113 heartbeat IPC: 0.254497 cumulative IPC: 0.259179 (Simulation time: 4 hr 52 min 30 sec) 
Heartbeat CPU 0 instructions: 230000000 cycles: 709692994 heartbeat IPC: 0.252903 cumulative IPC: 0.258822 (Simulation time: 4 hr 53 min 51 sec) 
Heartbeat CPU 0 instructions: 240000002 cycles: 749252987 heartbeat IPC: 0.252781 cumulative IPC: 0.258497 (Simulation time: 4 hr 55 min 12 sec) 
Heartbeat CPU 0 instructions: 250000001 cycles: 789058049 heartbeat IPC: 0.251224 cumulative IPC: 0.258123 (Simulation time: 4 hr 56 min 30 sec) 
Finished CPU 0 instructions: 200000002 cycles: 774823303 cumulative IPC: 0.258123 (Simulation time: 4 hr 56 min 30 sec) 

ChampSim completed all CPUs

Region of Interest Statistics

CPU 0 cumulative IPC: 0.258123 instructions: 200000002 cycles: 774823303
ITLB TOTAL     ACCESS:   35615623  HIT:   35615623  MISS:          0  HIT %:        100  MISS %:          0   MPKI: 0
ITLB LOAD TRANSLATION ACCESS:   35615623  HIT:   35615623  MISS:          0  HIT %:        100  MISS %:          0   MPKI: 0
ITLB PREFETCH  REQUESTED:          0  ISSUED:          0  USEFUL:          0  USELESS:          0
ITLB USEFUL LOAD PREFETCHES:          0 PREFETCH ISSUED TO LOWER LEVEL:          0  ACCURACY: -nan
ITLB TIMELY PREFETCHES:          0 LATE PREFETCHES: 0 DROPPED PREFETCHES: 0
ITLB PREFETCHES SAME FILL-ORIGIN LEVEL: 0 DIFFERENT FILL-ORIGIN LEVEL: 0
ITLB AVERAGE MISS LATENCY: -nan cycles
ITLB RQ	ACCESS:   42827903	FORWARD:          0	MERGED:    7212279	TO_CACHE:   35615624

DTLB TOTAL     ACCESS:   30161372  HIT:   25287024  MISS:    4874348  HIT %:    83.8391  MISS %:    16.1609   MPKI: 24.3717
DTLB LOAD TRANSLATION ACCESS:   30161372  HIT:   25287024  MISS:    4874348  HIT %:    83.8391  MISS %:    16.1609   MPKI: 24.3717
DTLB PREFETCH  REQUESTED:          0  ISSUED:          0  USEFUL:          0  USELESS:          0
DTLB USEFUL LOAD PREFETCHES:          0 PREFETCH ISSUED TO LOWER LEVEL:          0  ACCURACY: -nan
DTLB TIMELY PREFETCHES:          0 LATE PREFETCHES: 0 DROPPED PREFETCHES: 0
DTLB PREFETCHES SAME FILL-ORIGIN LEVEL: 0 DIFFERENT FILL-ORIGIN LEVEL: 0
DTLB AVERAGE MISS LATENCY: 76.5251 cycles
DTLB RQ	ACCESS:   34914723	FORWARD:          0	MERGED:    4717378	TO_CACHE:   30197345

STLB TOTAL     ACCESS:   12791885  HIT:    8145404  MISS:    4646481  HIT %:    63.6763  MISS %:    36.3237   MPKI: 23.2324
STLB LOAD TRANSLATION ACCESS:    4874348  HIT:     340749  MISS:    4533599  HIT %:    6.99066  MISS %:    93.0093   MPKI: 22.668
STLB TRANSLATION FROM L1D PREFETCHER ACCESS:    7917537  HIT:    7804655  MISS:     112882  HIT %:    98.5743  MISS %:    1.42572   MPKI: 0.56441
STLB PREFETCH  REQUESTED:          0  ISSUED:          0  USEFUL:     110733  USELESS:       2152
STLB USEFUL LOAD PREFETCHES:     110733 PREFETCH ISSUED TO LOWER LEVEL:          0  ACCURACY: inf
STLB TIMELY PREFETCHES:     110733 LATE PREFETCHES: 1003 DROPPED PREFETCHES: 119819
STLB PREFETCHES SAME FILL-ORIGIN LEVEL: 0 DIFFERENT FILL-ORIGIN LEVEL: 0
STLB AVERAGE MISS LATENCY: 71.3791 cycles
STLB RQ	ACCESS:   24110216	FORWARD:          0	MERGED:   11184327	TO_CACHE:   12925889

STLB Hit, L1D data hit: 0
STLB Hit, L2C data hit: 0
STLB Hit, LLC data hit: 0
STLB Hit, LLC data miss: 0
STLB STLB hints to L2: 0
L1D TOTAL     ACCESS:   36116790  HIT:   24778040  MISS:   11338750  HIT %:    68.6053  MISS %:    31.3947   MPKI: 56.6937
L1D LOAD      ACCESS:   25873671  HIT:   15610653  MISS:   10263018  HIT %:    60.3341  MISS %:    39.6659   MPKI: 51.3151
L1D RFO       ACCESS:    8868407  HIT:    8314060  MISS:     554347  HIT %:    93.7492  MISS %:    6.25081   MPKI: 2.77173
L1D PREFETCH  ACCESS:    1374712  HIT:     853327  MISS:     521385  HIT %:    62.0731  MISS %:    37.9269   MPKI: 2.60692
L1D PREFETCH  REQUESTED:   38805244  ISSUED:   38803204  USEFUL:     271486  USELESS:     249915
L1D USEFUL LOAD PREFETCHES:     271486 PREFETCH ISSUED TO LOWER LEVEL:   18236763  ACCURACY: 1.48867
L1D TIMELY PREFETCHES:     271486 LATE PREFETCHES: 1344 DROPPED PREFETCHES: 119824
L1D PREFETCHES SAME FILL-ORIGIN LEVEL: 522729 DIFFERENT FILL-ORIGIN LEVEL: 17714034
L1D AVERAGE MISS LATENCY: 109.792 cycles
L1D RQ	ACCESS:   49204385	FORWARD:          0	MERGED:   22729829	TO_CACHE:   26046314
L1D WQ	ACCESS:    8868414	FORWARD:     428242	MERGED:          5	TO_CACHE:    8868409
L1D PQ	ACCESS:   19567336	FORWARD:          0	MERGED:     331468	TO_CACHE:   19235868

L1D UNIQUE REGIONS ACCESSED: 0
L1D REGIONS CONFLICTS: 0
L1D Cross Page Prefetch Requests: 3422419
L1D Same Page Prefetch Requests: 18928072
L1D ROI Sum of L1D PQ occupancy: 280902682
L1D PREFETCHES PUSHED FROM L2C: 0
L1I TOTAL     ACCESS:   42827901  HIT:   42827901  MISS:          0  HIT %:        100  MISS %:          0   MPKI: 0
L1I LOAD      ACCESS:   42827901  HIT:   42827901  MISS:          0  HIT %:        100  MISS %:          0   MPKI: 0
L1I PREFETCH  REQUESTED:          0  ISSUED:          0  USEFUL:          0  USELESS:          0
L1I USEFUL LOAD PREFETCHES:          0 PREFETCH ISSUED TO LOWER LEVEL:          0  ACCURACY: -nan
L1I TIMELY PREFETCHES:          0 LATE PREFETCHES: 0 DROPPED PREFETCHES: 0
L1I PREFETCHES SAME FILL-ORIGIN LEVEL: 0 DIFFERENT FILL-ORIGIN LEVEL: 0
L1I AVERAGE MISS LATENCY: -nan cycles
L1I RQ	ACCESS:   63721065	FORWARD:          0	MERGED:   20893162	TO_CACHE:   42827903

BTB TOTAL     ACCESS:   26649158  HIT:   26649150  MISS:          8  HIT %:        100  MISS %: 3.00197e-05   MPKI: 4e-05
BTB BRANCH_DIRECT_JUMP	ACCESS:    4549688  HIT:    4549686  MISS:          2
BTB BRANCH_INDIRECT	ACCESS:          0  HIT:          0  MISS:          0
BTB BRANCH_CONDITIONAL	ACCESS:   13231060  HIT:   13231056  MISS:          4
BTB BRANCH_DIRECT_CALL	ACCESS:    4434205  HIT:    4434204  MISS:          1
BTB BRANCH_INDIRECT_CALL	ACCESS:          0  HIT:          0  MISS:          0
BTB BRANCH_RETURN	ACCESS:    4434205  HIT:    4434204  MISS:          1
BTB BRANCH_OTHER ACCESS:          0  HIT:          0  MISS:          0

L2C TOTAL     ACCESS:   38934683  HIT:   25320058  MISS:   13614625  HIT %:    65.0321  MISS %:    34.9679   MPKI: 68.0731
L2C LOAD      ACCESS:   10261674  HIT:    3703813  MISS:    6557861  HIT %:    36.0937  MISS %:    63.9063   MPKI: 32.7893
L2C DATA LOAD MPKI: 32.7893
L2C INSTRUCTION LOAD MPKI: 0
L2C RFO       ACCESS:     554347  HIT:      18076  MISS:     536271  HIT %:    3.26077  MISS %:    96.7392   MPKI: 2.68135
L2C PREFETCH  ACCESS:   18178363  HIT:   15952101  MISS:    2226262  HIT %:    87.7532  MISS %:    12.2468   MPKI: 11.1313
L2C DATA PREFETCH MPKI: 11.1313
L2C INSTRUCTION PREFETCH MPKI: 0
L2C WRITEBACK ACCESS:    4434192  HIT:    4292345  MISS:     141847  HIT %:    96.8011  MISS %:    3.19894   MPKI: 0.709235
L2C LOAD TRANSLATION ACCESS:    5144378  HIT:     999893  MISS:    4144485  HIT %:    19.4366  MISS %:    80.5634   MPKI: 20.7224
L2C TRANSLATION FROM L1D PREFETCHER ACCESS:     361729  HIT:     353830  MISS:       7899  HIT %:    97.8163  MISS %:    2.18368   MPKI: 0.039495
L2C PREFETCH  REQUESTED:          0  ISSUED:          0  USEFUL:     323489  USELESS:    1909663
L2C USEFUL LOAD PREFETCHES:     323489 PREFETCH ISSUED TO LOWER LEVEL:    2232469  ACCURACY: 14.4902
L2C TIMELY PREFETCHES:     323489 LATE PREFETCHES: 6205 DROPPED PREFETCHES: 0
L2C PREFETCHES SAME FILL-ORIGIN LEVEL: 2188901 DIFFERENT FILL-ORIGIN LEVEL: 0
L2C AVERAGE MISS LATENCY: 94.7415 cycles
L2C RQ	ACCESS:   16322128	FORWARD:          0	MERGED:          0	TO_CACHE:   16322128
L2C WQ	ACCESS:    4434192	FORWARD:          0	MERGED:          0	TO_CACHE:    4434192
L2C PQ	ACCESS:   18236763	FORWARD:          0	MERGED:       4938	TO_CACHE:   18231825

L2C Instructions Evicting Data 0
L2C Translations Evicting Data 2537178
L2C Data Evicting Data 6806767
L2C Instructions Evicting Instructions 0
L2C Translations Evicting Instructions 0
L2C Data Evicting Instructions 0
L2C Instructions Evicting Translations 0
L2C Translations Evicting Translations 1615206
L2C Data Evicting Translations 2513627
L2C Dense regions hint from L2: 0
PSCL5 TOTAL     ACCESS:    4766304  HIT:    4766304  MISS:          0  HIT %:        100  MISS %:          0   MPKI: 0
PSCL5 LOAD TRANSLATION ACCESS:    4532600  HIT:    4532600  MISS:          0  HIT %:        100  MISS %:          0   MPKI: 0
PSCL5 TRANSLATION FROM L1D PREFETCHER ACCESS:     233704  HIT:     233704  MISS:          0  HIT %:        100  MISS %:          0   MPKI: 0
PSCL5 PREFETCH  REQUESTED:          0  ISSUED:          0  USEFUL:          0  USELESS:          0
PSCL5 USEFUL LOAD PREFETCHES:          0 PREFETCH ISSUED TO LOWER LEVEL:          0  ACCURACY: -nan
PSCL5 TIMELY PREFETCHES:          0 LATE PREFETCHES: 0 DROPPED PREFETCHES: 0
PSCL5 PREFETCHES SAME FILL-ORIGIN LEVEL: 0 DIFFERENT FILL-ORIGIN LEVEL: 0

PSCL4 TOTAL     ACCESS:    4766304  HIT:    4766304  MISS:          0  HIT %:        100  MISS %:          0   MPKI: 0
PSCL4 LOAD TRANSLATION ACCESS:    4532600  HIT:    4532600  MISS:          0  HIT %:        100  MISS %:          0   MPKI: 0
PSCL4 TRANSLATION FROM L1D PREFETCHER ACCESS:     233704  HIT:     233704  MISS:          0  HIT %:        100  MISS %:          0   MPKI: 0
PSCL4 PREFETCH  REQUESTED:          0  ISSUED:          0  USEFUL:          0  USELESS:          0
PSCL4 USEFUL LOAD PREFETCHES:          0 PREFETCH ISSUED TO LOWER LEVEL:          0  ACCURACY: -nan
PSCL4 TIMELY PREFETCHES:          0 LATE PREFETCHES: 0 DROPPED PREFETCHES: 0
PSCL4 PREFETCHES SAME FILL-ORIGIN LEVEL: 0 DIFFERENT FILL-ORIGIN LEVEL: 0

PSCL3 TOTAL     ACCESS:    4766304  HIT:    4766304  MISS:          0  HIT %:        100  MISS %:          0   MPKI: 0
PSCL3 LOAD TRANSLATION ACCESS:    4532600  HIT:    4532600  MISS:          0  HIT %:        100  MISS %:          0   MPKI: 0
PSCL3 TRANSLATION FROM L1D PREFETCHER ACCESS:     233704  HIT:     233704  MISS:          0  HIT %:        100  MISS %:          0   MPKI: 0
PSCL3 PREFETCH  REQUESTED:          0  ISSUED:          0  USEFUL:          0  USELESS:          0
PSCL3 USEFUL LOAD PREFETCHES:          0 PREFETCH ISSUED TO LOWER LEVEL:          0  ACCURACY: -nan
PSCL3 TIMELY PREFETCHES:          0 LATE PREFETCHES: 0 DROPPED PREFETCHES: 0
PSCL3 PREFETCHES SAME FILL-ORIGIN LEVEL: 0 DIFFERENT FILL-ORIGIN LEVEL: 0

PSCL2 TOTAL     ACCESS:    4646481  HIT:    4026501  MISS:     619980  HIT %:     86.657  MISS %:     13.343   MPKI: 3.0999
PSCL2 LOAD TRANSLATION ACCESS:    4540802  HIT:    3920822  MISS:     619980  HIT %:    86.3465  MISS %:    13.6535   MPKI: 3.0999
PSCL2 TRANSLATION FROM L1D PREFETCHER ACCESS:     105679  HIT:     105679  MISS:          0  HIT %:        100  MISS %:          0   MPKI: 0
PSCL2 PREFETCH  REQUESTED:          0  ISSUED:          0  USEFUL:          0  USELESS:          0
PSCL2 USEFUL LOAD PREFETCHES:          0 PREFETCH ISSUED TO LOWER LEVEL:          0  ACCURACY: -nan
PSCL2 TIMELY PREFETCHES:          0 LATE PREFETCHES: 0 DROPPED PREFETCHES: 0
PSCL2 PREFETCHES SAME FILL-ORIGIN LEVEL: 0 DIFFERENT FILL-ORIGIN LEVEL: 0

LLC TOTAL     ACCESS:   17908190  HIT:   12665969  MISS:    5242221  HIT %:    70.7272  MISS %:    29.2728   MPKI: 26.2111
LLC LOAD      ACCESS:    6551656  HIT:    1533258  MISS:    5018398  HIT %:    23.4026  MISS %:    76.5974   MPKI: 25.092
LLC RFO       ACCESS:     536271  HIT:     528116  MISS:       8155  HIT %:    98.4793  MISS %:    1.52069   MPKI: 0.040775
LLC PREFETCH  ACCESS:    2232467  HIT:    2101294  MISS:     131173  HIT %:    94.1243  MISS %:     5.8757   MPKI: 0.655865
LLC WRITEBACK ACCESS:    4435412  HIT:    4369736  MISS:      65676  HIT %:    98.5193  MISS %:    1.48072   MPKI: 0.32838
LLC LOAD TRANSLATION ACCESS:    4144485  HIT:    4125949  MISS:      18536  HIT %:    99.5528  MISS %:   0.447245   MPKI: 0.09268
LLC TRANSLATION FROM L1D PREFETCHER ACCESS:       7899  HIT:       7616  MISS:        283  HIT %:    96.4173  MISS %:    3.58273   MPKI: 0.001415
LLC PREFETCH  REQUESTED:          0  ISSUED:          0  USEFUL:       3407  USELESS:     122982
LLC USEFUL LOAD PREFETCHES:       3407 PREFETCH ISSUED TO LOWER LEVEL:     131174  ACCURACY: 2.59731
LLC TIMELY PREFETCHES:       3407 LATE PREFETCHES: 0 DROPPED PREFETCHES: 0
LLC PREFETCHES SAME FILL-ORIGIN LEVEL: 0 DIFFERENT FILL-ORIGIN LEVEL: 0
LLC AVERAGE MISS LATENCY: 168.615 cycles
LLC RQ	ACCESS:   11240311	FORWARD:          0	MERGED:          0	TO_CACHE:   11240311
LLC WQ	ACCESS:    4435412	FORWARD:          0	MERGED:          0	TO_CACHE:    4435412
LLC PQ	ACCESS:    2232469	FORWARD:          0	MERGED:          0	TO_CACHE:    2232469

LLC Dense regions hint to LLC: 0

RAW hits: 4004329
Loads Generated: 53208714
Loads sent to L1D: 49204385
Stores Generated: 8868412
Stores sent to L1D: 8868414
Major fault: 0 Minor fault: 101164
Allocated PAGES: 101164

DRAM Statistics
 CHANNEL 0
 RQ ROW_BUFFER_HIT:      28628  ROW_BUFFER_MISS:    5147917
 DBUS_CONGESTED:         23
 WQ ROW_BUFFER_HIT:    1199652  ROW_BUFFER_MISS:    3241374  FULL:          0

 AVG_CONGESTED_CYCLE: 4
 All warmup complete: 2
Channel 0 Bank busy for read cycles: 0
Channel 0 Bank busy for write cycles: 0
Channel 0
Rank 0
0banks busy for read cycles: 41178472
0banks busy for write cycles: 753387
1banks busy for read cycles: 212891549
1banks busy for write cycles: 56050039
2banks busy for read cycles: 128743687
2banks busy for write cycles: 63719662
3banks busy for read cycles: 75775882
3banks busy for write cycles: 85795486
4banks busy for read cycles: 17951972
4banks busy for write cycles: 58317709
5banks busy for read cycles: 605275
5banks busy for write cycles: 19211626
6banks busy for read cycles: 147286
6banks busy for write cycles: 7056181
7banks busy for read cycles: 47314
7banks busy for write cycles: 2948306
8banks busy for read cycles: 10803
8banks busy for write cycles: 3618668

CPU 0 Branch Prediction Accuracy: 99.988% MPKI: 0.01061 Average ROB Occupancy at Mispredict: 307.945
Branch types
NOT_BRANCH: 168845081 84.4225%
BRANCH_DIRECT_JUMP: 4549688 2.27484%
BRANCH_INDIRECT: 0 0%
BRANCH_CONDITIONAL: 17736819 8.86841%
BRANCH_DIRECT_CALL: 4434205 2.2171%
BRANCH_INDIRECT_CALL: 0 0%
BRANCH_RETURN: 4434205 2.2171%
BRANCH_OTHER: 0 0%

DRAM PAGES: 1048576
Allocated PAGES: 101164
