 (TOTAL 523355 bits 511 Kbits) 
*** ChampSim Multicore Out-of-Order Simulator ***

Warmup Instructions: 50000000
Simulation Instructions: 200000000
Number of CPUs: 1
LLC sets: 2048
LLC ways: 16
Off-chip DRAM Size: 4096 MB Channels: 1 Width: 64-bit Data Rate: 6400 MT/s
argv[0]: ./ChampSim/Berti/bin/tagescl-no-vberti-no-no-no-no-no-lru-lru-lru-srrip-drrip-lru-lru-lru-1core-no
argv[1]: -warmup_instructions
argv[2]: 50000000
argv[3]: -simulation_instructions
argv[4]: 200000000
argv[5]: -traces
argv[6]: traces/spec2k17_ten/605.mcf_s-1554B.champsimtrace.xz
CPU 0 runs traces/spec2k17_ten/605.mcf_s-1554B.champsimtrace.xz
.xz
CPU 0 Tage branch predictor
BTB has LRU replacement policy
ITLB has LRU replacement policy
DTLB has LRU replacement policy
STLB has LRU replacement policy
L1I has LRU replacement policy
History Sets: 8
History Ways: 16
BERTI Size: 16
BERTI Stride Size: 16
L1D has LRU replacement policy
Initialize SRRIP state for L2C
Initialize DRRIP state for LLC
Heartbeat CPU 0 instructions: 10000001 cycles: 3463981 heartbeat IPC: 2.88685 cumulative IPC: 2.88685 (Simulation time: 0 hr 16 min 52 sec) 
Heartbeat CPU 0 instructions: 20000000 cycles: 6950626 heartbeat IPC: 2.86809 cumulative IPC: 2.87744 (Simulation time: 0 hr 31 min 10 sec) 
Heartbeat CPU 0 instructions: 30000002 cycles: 10446582 heartbeat IPC: 2.86045 cumulative IPC: 2.87175 (Simulation time: 0 hr 45 min 59 sec) 
Heartbeat CPU 0 instructions: 40000001 cycles: 13929761 heartbeat IPC: 2.87094 cumulative IPC: 2.87155 (Simulation time: 0 hr 56 min 13 sec) 
Heartbeat CPU 0 instructions: 50000001 cycles: 17415959 heartbeat IPC: 2.86845 cumulative IPC: 2.87093 (Simulation time: 1 hr 7 min 37 sec) 

Warmup complete CPU 0 instructions: 50000001 cycles: 17415959 (Simulation time: 1 hr 7 min 37 sec) 

Heartbeat CPU 0 instructions: 60000001 cycles: 31972574 heartbeat IPC: 0.686973 cumulative IPC: 0.686973 (Simulation time: 1 hr 26 min 52 sec) 
Heartbeat CPU 0 instructions: 70000000 cycles: 46827957 heartbeat IPC: 0.673157 cumulative IPC: 0.679995 (Simulation time: 1 hr 44 min 44 sec) 
Heartbeat CPU 0 instructions: 80000002 cycles: 61725387 heartbeat IPC: 0.671257 cumulative IPC: 0.677057 (Simulation time: 2 hr 3 min 45 sec) 
Heartbeat CPU 0 instructions: 90000003 cycles: 76666292 heartbeat IPC: 0.669304 cumulative IPC: 0.675102 (Simulation time: 2 hr 22 min 41 sec) 
Heartbeat CPU 0 instructions: 100000000 cycles: 91582541 heartbeat IPC: 0.67041 cumulative IPC: 0.674158 (Simulation time: 2 hr 41 min 14 sec) 
Heartbeat CPU 0 instructions: 110000000 cycles: 106530940 heartbeat IPC: 0.668968 cumulative IPC: 0.673287 (Simulation time: 2 hr 56 min 43 sec) 
Heartbeat CPU 0 instructions: 120000000 cycles: 121193615 heartbeat IPC: 0.682004 cumulative IPC: 0.674519 (Simulation time: 3 hr 12 min 59 sec) 
Heartbeat CPU 0 instructions: 130000000 cycles: 136167737 heartbeat IPC: 0.667819 cumulative IPC: 0.673674 (Simulation time: 3 hr 32 min 25 sec) 
Heartbeat CPU 0 instructions: 140000003 cycles: 151162231 heartbeat IPC: 0.666912 cumulative IPC: 0.672916 (Simulation time: 3 hr 51 min 59 sec) 
Heartbeat CPU 0 instructions: 150000001 cycles: 166019765 heartbeat IPC: 0.673059 cumulative IPC: 0.67293 (Simulation time: 4 hr 7 min 33 sec) 
Heartbeat CPU 0 instructions: 160000000 cycles: 180515419 heartbeat IPC: 0.689862 cumulative IPC: 0.674435 (Simulation time: 4 hr 16 min 36 sec) 
Heartbeat CPU 0 instructions: 170000003 cycles: 195276503 heartbeat IPC: 0.677457 cumulative IPC: 0.674686 (Simulation time: 4 hr 27 min 20 sec) 
Heartbeat CPU 0 instructions: 180000003 cycles: 210104898 heartbeat IPC: 0.674382 cumulative IPC: 0.674663 (Simulation time: 4 hr 36 min 38 sec) 
Heartbeat CPU 0 instructions: 190000001 cycles: 224881628 heartbeat IPC: 0.67674 cumulative IPC: 0.67481 (Simulation time: 4 hr 42 min 35 sec) 
Heartbeat CPU 0 instructions: 200000002 cycles: 239574804 heartbeat IPC: 0.680588 cumulative IPC: 0.675193 (Simulation time: 4 hr 46 min 5 sec) 
Heartbeat CPU 0 instructions: 210000003 cycles: 254651123 heartbeat IPC: 0.663292 cumulative IPC: 0.674436 (Simulation time: 4 hr 49 min 29 sec) 
Heartbeat CPU 0 instructions: 220000000 cycles: 269782052 heartbeat IPC: 0.660898 cumulative IPC: 0.673625 (Simulation time: 4 hr 51 min 49 sec) 
Heartbeat CPU 0 instructions: 230000002 cycles: 284594500 heartbeat IPC: 0.675108 cumulative IPC: 0.673707 (Simulation time: 4 hr 53 min 17 sec) 
Heartbeat CPU 0 instructions: 240000001 cycles: 299745557 heartbeat IPC: 0.66002 cumulative IPC: 0.672972 (Simulation time: 4 hr 54 min 36 sec) 
Heartbeat CPU 0 instructions: 250000000 cycles: 315033832 heartbeat IPC: 0.654096 cumulative IPC: 0.672003 (Simulation time: 4 hr 55 min 56 sec) 
Finished CPU 0 instructions: 200000000 cycles: 297617893 cumulative IPC: 0.672003 (Simulation time: 4 hr 55 min 56 sec) 

ChampSim completed all CPUs

Region of Interest Statistics

CPU 0 cumulative IPC: 0.672003 instructions: 200000000 cycles: 297617893
ITLB TOTAL     ACCESS:   39668382  HIT:   39668382  MISS:          0  HIT %:        100  MISS %:          0   MPKI: 0
ITLB LOAD TRANSLATION ACCESS:   39668382  HIT:   39668382  MISS:          0  HIT %:        100  MISS %:          0   MPKI: 0
ITLB PREFETCH  REQUESTED:          0  ISSUED:          0  USEFUL:          0  USELESS:          0
ITLB USEFUL LOAD PREFETCHES:          0 PREFETCH ISSUED TO LOWER LEVEL:          0  ACCURACY: -nan
ITLB TIMELY PREFETCHES:          0 LATE PREFETCHES: 0 DROPPED PREFETCHES: 0
ITLB PREFETCHES SAME FILL-ORIGIN LEVEL: 0 DIFFERENT FILL-ORIGIN LEVEL: 0
ITLB AVERAGE MISS LATENCY: -nan cycles
ITLB RQ	ACCESS:   48400199	FORWARD:          0	MERGED:    8731817	TO_CACHE:   39668382

DTLB TOTAL     ACCESS:   61032097  HIT:   60231673  MISS:     800424  HIT %:    98.6885  MISS %:    1.31148   MPKI: 4.00212
DTLB LOAD TRANSLATION ACCESS:   61032097  HIT:   60231673  MISS:     800424  HIT %:    98.6885  MISS %:    1.31148   MPKI: 4.00212
DTLB PREFETCH  REQUESTED:          0  ISSUED:          0  USEFUL:          0  USELESS:          0
DTLB USEFUL LOAD PREFETCHES:          0 PREFETCH ISSUED TO LOWER LEVEL:          0  ACCURACY: -nan
DTLB TIMELY PREFETCHES:          0 LATE PREFETCHES: 0 DROPPED PREFETCHES: 0
DTLB PREFETCHES SAME FILL-ORIGIN LEVEL: 0 DIFFERENT FILL-ORIGIN LEVEL: 0
DTLB AVERAGE MISS LATENCY: 10.7107 cycles
DTLB RQ	ACCESS:   75967220	FORWARD:          0	MERGED:   14916437	TO_CACHE:   61050783

STLB TOTAL     ACCESS:   35736339  HIT:   35724049  MISS:      12290  HIT %:    99.9656  MISS %:  0.0343908   MPKI: 0.06145
STLB LOAD TRANSLATION ACCESS:     800424  HIT:     788530  MISS:      11894  HIT %:     98.514  MISS %:    1.48596   MPKI: 0.05947
STLB TRANSLATION FROM L1D PREFETCHER ACCESS:   34935915  HIT:   34935519  MISS:        396  HIT %:    99.9989  MISS %:  0.0011335   MPKI: 0.00198
STLB PREFETCH  REQUESTED:          0  ISSUED:          0  USEFUL:        396  USELESS:          0
STLB USEFUL LOAD PREFETCHES:        396 PREFETCH ISSUED TO LOWER LEVEL:          0  ACCURACY: inf
STLB TIMELY PREFETCHES:        396 LATE PREFETCHES: 326 DROPPED PREFETCHES: 57934
STLB PREFETCHES SAME FILL-ORIGIN LEVEL: 0 DIFFERENT FILL-ORIGIN LEVEL: 0
STLB AVERAGE MISS LATENCY: 172.383 cycles
STLB RQ	ACCESS:  169506143	FORWARD:          0	MERGED:  133707897	TO_CACHE:   35798246

STLB Hit, L1D data hit: 0
STLB Hit, L2C data hit: 0
STLB Hit, LLC data hit: 0
STLB Hit, LLC data miss: 0
STLB STLB hints to L2: 0
L1D TOTAL     ACCESS:  180755432  HIT:  146931394  MISS:   33824038  HIT %:    81.2874  MISS %:    18.7126   MPKI: 169.12
L1D LOAD      ACCESS:   64018356  HIT:   60140938  MISS:    3877418  HIT %:    93.9433  MISS %:    6.05673   MPKI: 19.3871
L1D RFO       ACCESS:   10059712  HIT:    9658240  MISS:     401472  HIT %:    96.0091  MISS %:    3.99089   MPKI: 2.00736
L1D PREFETCH  ACCESS:  106677364  HIT:   77132216  MISS:   29545148  HIT %:    72.3042  MISS %:    27.6958   MPKI: 147.726
L1D PREFETCH  REQUESTED:  531839409  ISSUED:  356202095  USEFUL:   26881063  USELESS:    2664099
L1D USEFUL LOAD PREFETCHES:   26881063 PREFETCH ISSUED TO LOWER LEVEL:   84754015  ACCURACY: 31.7166
L1D TIMELY PREFETCHES:   26881063 LATE PREFETCHES: 1038801 DROPPED PREFETCHES: 164035
L1D PREFETCHES SAME FILL-ORIGIN LEVEL: 30864768 DIFFERENT FILL-ORIGIN LEVEL: 53889247
L1D AVERAGE MISS LATENCY: 57.5354 cycles
L1D RQ	ACCESS:   82847650	FORWARD:          0	MERGED:   18560105	TO_CACHE:   64147936
L1D WQ	ACCESS:   13518702	FORWARD:     139646	MERGED:    1699418	TO_CACHE:   11819284
L1D PQ	ACCESS:  187496376	FORWARD:          0	MERGED:   18790620	TO_CACHE:  168705719

L1D UNIQUE REGIONS ACCESSED: 0
L1D REGIONS CONFLICTS: 0
L1D Cross Page Prefetch Requests: 60223293
L1D Same Page Prefetch Requests: 151143275
L1D ROI Sum of L1D PQ occupancy: 2651875860
L1D PREFETCHES PUSHED FROM L2C: 0
L1I TOTAL     ACCESS:   48400199  HIT:   48400199  MISS:          0  HIT %:        100  MISS %:          0   MPKI: 0
L1I LOAD      ACCESS:   48400199  HIT:   48400199  MISS:          0  HIT %:        100  MISS %:          0   MPKI: 0
L1I PREFETCH  REQUESTED:          0  ISSUED:          0  USEFUL:          0  USELESS:          0
L1I USEFUL LOAD PREFETCHES:          0 PREFETCH ISSUED TO LOWER LEVEL:          0  ACCURACY: -nan
L1I TIMELY PREFETCHES:          0 LATE PREFETCHES: 0 DROPPED PREFETCHES: 0
L1I PREFETCHES SAME FILL-ORIGIN LEVEL: 0 DIFFERENT FILL-ORIGIN LEVEL: 0
L1I AVERAGE MISS LATENCY: -nan cycles
L1I RQ	ACCESS:   80297052	FORWARD:          0	MERGED:   31896853	TO_CACHE:   48400199

BTB TOTAL     ACCESS:   35943477  HIT:   35943445  MISS:         32  HIT %:    99.9999  MISS %: 8.90287e-05   MPKI: 0.00016
BTB BRANCH_DIRECT_JUMP	ACCESS:    8413979  HIT:    8413973  MISS:          6
BTB BRANCH_INDIRECT	ACCESS:          0  HIT:          0  MISS:          0
BTB BRANCH_CONDITIONAL	ACCESS:   27526342  HIT:   27526320  MISS:         22
BTB BRANCH_DIRECT_CALL	ACCESS:       1578  HIT:       1576  MISS:          2
BTB BRANCH_INDIRECT_CALL	ACCESS:          0  HIT:          0  MISS:          0
BTB BRANCH_RETURN	ACCESS:       1578  HIT:       1576  MISS:          2
BTB BRANCH_OTHER ACCESS:          0  HIT:          0  MISS:          0

L2C TOTAL     ACCESS:   74200271  HIT:   33268865  MISS:   40931406  HIT %:    44.8366  MISS %:    55.1634   MPKI: 204.657
L2C LOAD      ACCESS:    2838614  HIT:    2390634  MISS:     447980  HIT %:    84.2184  MISS %:    15.7816   MPKI: 2.2399
L2C DATA LOAD MPKI: 2.2399
L2C INSTRUCTION LOAD MPKI: 0
L2C RFO       ACCESS:     399806  HIT:       3700  MISS:     396106  HIT %:   0.925449  MISS %:    99.0746   MPKI: 1.98053
L2C PREFETCH  ACCESS:   70343284  HIT:   30266358  MISS:   40076926  HIT %:    43.0266  MISS %:    56.9734   MPKI: 200.385
L2C DATA PREFETCH MPKI: 200.385
L2C INSTRUCTION PREFETCH MPKI: 0
L2C WRITEBACK ACCESS:     547656  HIT:     542816  MISS:       4840  HIT %:    99.1162  MISS %:   0.883766   MPKI: 0.0242
L2C LOAD TRANSLATION ACCESS:      11896  HIT:      10177  MISS:       1719  HIT %:    85.5498  MISS %:    14.4502   MPKI: 0.008595
L2C TRANSLATION FROM L1D PREFETCHER ACCESS:      59015  HIT:      55180  MISS:       3835  HIT %:    93.5017  MISS %:    6.49835   MPKI: 0.019175
L2C PREFETCH  REQUESTED:          0  ISSUED:          0  USEFUL:    2393953  USELESS:   37685890
L2C USEFUL LOAD PREFETCHES:    2393953 PREFETCH ISSUED TO LOWER LEVEL:   40349937  ACCURACY: 5.93298
L2C TIMELY PREFETCHES:    2393953 LATE PREFETCHES: 273002 DROPPED PREFETCHES: 0
L2C PREFETCHES SAME FILL-ORIGIN LEVEL: 25482065 DIFFERENT FILL-ORIGIN LEVEL: 0
L2C AVERAGE MISS LATENCY: 101.25 cycles
L2C RQ	ACCESS:    3309336	FORWARD:          0	MERGED:          0	TO_CACHE:    3309331
L2C WQ	ACCESS:     547656	FORWARD:          5	MERGED:          0	TO_CACHE:     547656
L2C PQ	ACCESS:   80524593	FORWARD:          0	MERGED:     218068	TO_CACHE:   80306525

L2C Instructions Evicting Data 0
L2C Translations Evicting Data 5554
L2C Data Evicting Data 40915457
L2C Instructions Evicting Instructions 0
L2C Translations Evicting Instructions 0
L2C Data Evicting Instructions 0
L2C Instructions Evicting Translations 0
L2C Translations Evicting Translations 0
L2C Data Evicting Translations 5555
L2C Dense regions hint from L2: 0
PSCL5 TOTAL     ACCESS:      70542  HIT:      70542  MISS:          0  HIT %:        100  MISS %:          0   MPKI: 0
PSCL5 LOAD TRANSLATION ACCESS:      11886  HIT:      11886  MISS:          0  HIT %:        100  MISS %:          0   MPKI: 0
PSCL5 TRANSLATION FROM L1D PREFETCHER ACCESS:      58656  HIT:      58656  MISS:          0  HIT %:        100  MISS %:          0   MPKI: 0
PSCL5 PREFETCH  REQUESTED:          0  ISSUED:          0  USEFUL:          0  USELESS:          0
PSCL5 USEFUL LOAD PREFETCHES:          0 PREFETCH ISSUED TO LOWER LEVEL:          0  ACCURACY: -nan
PSCL5 TIMELY PREFETCHES:          0 LATE PREFETCHES: 0 DROPPED PREFETCHES: 0
PSCL5 PREFETCHES SAME FILL-ORIGIN LEVEL: 0 DIFFERENT FILL-ORIGIN LEVEL: 0

PSCL4 TOTAL     ACCESS:      70542  HIT:      70542  MISS:          0  HIT %:        100  MISS %:          0   MPKI: 0
PSCL4 LOAD TRANSLATION ACCESS:      11886  HIT:      11886  MISS:          0  HIT %:        100  MISS %:          0   MPKI: 0
PSCL4 TRANSLATION FROM L1D PREFETCHER ACCESS:      58656  HIT:      58656  MISS:          0  HIT %:        100  MISS %:          0   MPKI: 0
PSCL4 PREFETCH  REQUESTED:          0  ISSUED:          0  USEFUL:          0  USELESS:          0
PSCL4 USEFUL LOAD PREFETCHES:          0 PREFETCH ISSUED TO LOWER LEVEL:          0  ACCURACY: -nan
PSCL4 TIMELY PREFETCHES:          0 LATE PREFETCHES: 0 DROPPED PREFETCHES: 0
PSCL4 PREFETCHES SAME FILL-ORIGIN LEVEL: 0 DIFFERENT FILL-ORIGIN LEVEL: 0

PSCL3 TOTAL     ACCESS:      70542  HIT:      70541  MISS:          1  HIT %:    99.9986  MISS %:  0.0014176   MPKI: 5e-06
PSCL3 LOAD TRANSLATION ACCESS:      11886  HIT:      11885  MISS:          1  HIT %:    99.9916  MISS %: 0.00841326   MPKI: 5e-06
PSCL3 TRANSLATION FROM L1D PREFETCHER ACCESS:      58656  HIT:      58656  MISS:          0  HIT %:        100  MISS %:          0   MPKI: 0
PSCL3 PREFETCH  REQUESTED:          0  ISSUED:          0  USEFUL:          0  USELESS:          0
PSCL3 USEFUL LOAD PREFETCHES:          0 PREFETCH ISSUED TO LOWER LEVEL:          0  ACCURACY: -nan
PSCL3 TIMELY PREFETCHES:          0 LATE PREFETCHES: 0 DROPPED PREFETCHES: 0
PSCL3 PREFETCHES SAME FILL-ORIGIN LEVEL: 0 DIFFERENT FILL-ORIGIN LEVEL: 0

PSCL2 TOTAL     ACCESS:      70091  HIT:      70052  MISS:         39  HIT %:    99.9444  MISS %:   0.055642   MPKI: 0.000195
PSCL2 LOAD TRANSLATION ACCESS:      11891  HIT:      11852  MISS:         39  HIT %:     99.672  MISS %:   0.327979   MPKI: 0.000195
PSCL2 TRANSLATION FROM L1D PREFETCHER ACCESS:      58200  HIT:      58200  MISS:          0  HIT %:        100  MISS %:          0   MPKI: 0
PSCL2 PREFETCH  REQUESTED:          0  ISSUED:          0  USEFUL:          0  USELESS:          0
PSCL2 USEFUL LOAD PREFETCHES:          0 PREFETCH ISSUED TO LOWER LEVEL:          0  ACCURACY: -nan
PSCL2 TIMELY PREFETCHES:          0 LATE PREFETCHES: 0 DROPPED PREFETCHES: 0
PSCL2 PREFETCHES SAME FILL-ORIGIN LEVEL: 0 DIFFERENT FILL-ORIGIN LEVEL: 0

LLC TOTAL     ACCESS:   41473703  HIT:   23516438  MISS:   17957265  HIT %:     56.702  MISS %:     43.298   MPKI: 89.7863
LLC LOAD      ACCESS:     175518  HIT:     105742  MISS:      69776  HIT %:    60.2457  MISS %:    39.7543   MPKI: 0.34888
LLC RFO       ACCESS:     395566  HIT:       2365  MISS:     393201  HIT %:   0.597877  MISS %:    99.4021   MPKI: 1.96601
LLC PREFETCH  ACCESS:   40349929  HIT:   23372179  MISS:   16977750  HIT %:    57.9237  MISS %:    42.0763   MPKI: 84.8888
LLC WRITEBACK ACCESS:     547136  HIT:      34815  MISS:     512321  HIT %:    6.36313  MISS %:    93.6369   MPKI: 2.56161
LLC LOAD TRANSLATION ACCESS:       1719  HIT:         29  MISS:       1690  HIT %:    1.68703  MISS %:     98.313   MPKI: 0.00845
LLC TRANSLATION FROM L1D PREFETCHER ACCESS:       3835  HIT:       1308  MISS:       2527  HIT %:    34.1069  MISS %:    65.8931   MPKI: 0.012635
LLC PREFETCH  REQUESTED:          0  ISSUED:          0  USEFUL:       9449  USELESS:   16967736
LLC USEFUL LOAD PREFETCHES:       9449 PREFETCH ISSUED TO LOWER LEVEL:   16977756  ACCURACY: 0.0556552
LLC TIMELY PREFETCHES:       9449 LATE PREFETCHES: 0 DROPPED PREFETCHES: 0
LLC PREFETCHES SAME FILL-ORIGIN LEVEL: 0 DIFFERENT FILL-ORIGIN LEVEL: 0
LLC AVERAGE MISS LATENCY: 164.724 cycles
LLC RQ	ACCESS:     576638	FORWARD:          0	MERGED:          0	TO_CACHE:     576638
LLC WQ	ACCESS:     547136	FORWARD:          0	MERGED:          0	TO_CACHE:     547136
LLC PQ	ACCESS:   40349937	FORWARD:          0	MERGED:          0	TO_CACHE:   40349937

LLC Dense regions hint to LLC: 0

RAW hits: 8685297
Loads Generated: 91532952
Loads sent to L1D: 82847650
Stores Generated: 13518700
Stores sent to L1D: 13518702
Major fault: 0 Minor fault: 17320
Allocated PAGES: 17320

DRAM Statistics
 CHANNEL 0
 RQ ROW_BUFFER_HIT:   13174386  ROW_BUFFER_MISS:    4269925
 DBUS_CONGESTED:      12744
 WQ ROW_BUFFER_HIT:      83034  ROW_BUFFER_MISS:     459240  FULL:          0

 AVG_CONGESTED_CYCLE: 5
 All warmup complete: 2
Channel 0 Bank busy for read cycles: 0
Channel 0 Bank busy for write cycles: 0
Channel 0
Rank 0
0banks busy for read cycles: 400876
0banks busy for write cycles: 125
1banks busy for read cycles: 14171359
1banks busy for write cycles: 332293
2banks busy for read cycles: 26281454
2banks busy for write cycles: 302553
3banks busy for read cycles: 39975553
3banks busy for write cycles: 301183
4banks busy for read cycles: 49113954
4banks busy for write cycles: 235248
5banks busy for read cycles: 49690872
5banks busy for write cycles: 229095
6banks busy for read cycles: 42424223
6banks busy for write cycles: 313166
7banks busy for read cycles: 32459838
7banks busy for write cycles: 1446615
8banks busy for read cycles: 24432444
8banks busy for write cycles: 15507043

CPU 0 Branch Prediction Accuracy: 99.4815% MPKI: 0.73221 Average ROB Occupancy at Mispredict: 97.9076
Branch types
NOT_BRANCH: 163339846 81.6699%
BRANCH_DIRECT_JUMP: 8413979 4.20699%
BRANCH_INDIRECT: 0 0%
BRANCH_CONDITIONAL: 28243019 14.1215%
BRANCH_DIRECT_CALL: 1578 0.000789%
BRANCH_INDIRECT_CALL: 0 0%
BRANCH_RETURN: 1578 0.000789%
BRANCH_OTHER: 0 0%

DRAM PAGES: 1048576
Allocated PAGES: 17320
