 (TOTAL 523355 bits 511 Kbits) 
*** ChampSim Multicore Out-of-Order Simulator ***

Warmup Instructions: 50000000
Simulation Instructions: 200000000
Number of CPUs: 1
LLC sets: 2048
LLC ways: 16
Off-chip DRAM Size: 4096 MB Channels: 1 Width: 64-bit Data Rate: 6400 MT/s
argv[0]: ./ChampSim/Berti/bin/tagescl-no-vberti-no-no-no-no-no-lru-lru-lru-srrip-drrip-lru-lru-lru-1core-no
argv[1]: -warmup_instructions
argv[2]: 50000000
argv[3]: -simulation_instructions
argv[4]: 200000000
argv[5]: -traces
argv[6]: traces/spec2k17_ten/605.mcf_s-1644B.champsimtrace.xz
CPU 0 runs traces/spec2k17_ten/605.mcf_s-1644B.champsimtrace.xz
.xz
CPU 0 Tage branch predictor
BTB has LRU replacement policy
ITLB has LRU replacement policy
DTLB has LRU replacement policy
STLB has LRU replacement policy
L1I has LRU replacement policy
History Sets: 8
History Ways: 16
BERTI Size: 16
BERTI Stride Size: 16
L1D has LRU replacement policy
Initialize SRRIP state for L2C
Initialize DRRIP state for LLC
Heartbeat CPU 0 instructions: 10000003 cycles: 4934139 heartbeat IPC: 2.0267 cumulative IPC: 2.0267 (Simulation time: 0 hr 23 min 47 sec) 
Heartbeat CPU 0 instructions: 20000001 cycles: 9859005 heartbeat IPC: 2.03051 cumulative IPC: 2.0286 (Simulation time: 0 hr 46 min 36 sec) 
Heartbeat CPU 0 instructions: 30000001 cycles: 14781994 heartbeat IPC: 2.03129 cumulative IPC: 2.0295 (Simulation time: 1 hr 8 min 23 sec) 
Heartbeat CPU 0 instructions: 40000002 cycles: 19699014 heartbeat IPC: 2.03375 cumulative IPC: 2.03056 (Simulation time: 1 hr 30 min 3 sec) 
Heartbeat CPU 0 instructions: 50000000 cycles: 24609224 heartbeat IPC: 2.03657 cumulative IPC: 2.03176 (Simulation time: 1 hr 51 min 3 sec) 

Warmup complete CPU 0 instructions: 50000004 cycles: 24609225 (Simulation time: 1 hr 51 min 3 sec) 

Heartbeat CPU 0 instructions: 60000001 cycles: 87556212 heartbeat IPC: 0.158864 cumulative IPC: 0.158864 (Simulation time: 2 hr 18 min 54 sec) 
Heartbeat CPU 0 instructions: 70000000 cycles: 150804928 heartbeat IPC: 0.158106 cumulative IPC: 0.158484 (Simulation time: 2 hr 45 min 59 sec) 
Heartbeat CPU 0 instructions: 80000000 cycles: 214858254 heartbeat IPC: 0.15612 cumulative IPC: 0.157688 (Simulation time: 3 hr 14 min 1 sec) 
Heartbeat CPU 0 instructions: 90000000 cycles: 278633333 heartbeat IPC: 0.156801 cumulative IPC: 0.157465 (Simulation time: 3 hr 41 min 19 sec) 
Heartbeat CPU 0 instructions: 100000001 cycles: 343807192 heartbeat IPC: 0.153436 cumulative IPC: 0.156643 (Simulation time: 4 hr 5 min 34 sec) 
Heartbeat CPU 0 instructions: 110000000 cycles: 409109987 heartbeat IPC: 0.153133 cumulative IPC: 0.156046 (Simulation time: 4 hr 23 min 43 sec) 
Heartbeat CPU 0 instructions: 120000000 cycles: 474438268 heartbeat IPC: 0.153073 cumulative IPC: 0.155615 (Simulation time: 4 hr 38 min 16 sec) 
Heartbeat CPU 0 instructions: 130000000 cycles: 539265451 heartbeat IPC: 0.154256 cumulative IPC: 0.155444 (Simulation time: 4 hr 46 min 53 sec) 
Heartbeat CPU 0 instructions: 140000003 cycles: 602543715 heartbeat IPC: 0.158032 cumulative IPC: 0.155727 (Simulation time: 4 hr 51 min 41 sec) 
Heartbeat CPU 0 instructions: 150000002 cycles: 662238175 heartbeat IPC: 0.16752 cumulative IPC: 0.156831 (Simulation time: 4 hr 54 min 29 sec) 
Heartbeat CPU 0 instructions: 160000002 cycles: 720661967 heartbeat IPC: 0.171163 cumulative IPC: 0.158034 (Simulation time: 4 hr 56 min 33 sec) 
Heartbeat CPU 0 instructions: 170000000 cycles: 781669040 heartbeat IPC: 0.163915 cumulative IPC: 0.158508 (Simulation time: 4 hr 58 min 27 sec) 
Heartbeat CPU 0 instructions: 180000000 cycles: 842723286 heartbeat IPC: 0.163789 cumulative IPC: 0.158902 (Simulation time: 5 hr 0 min 19 sec) 
Heartbeat CPU 0 instructions: 190000000 cycles: 903336245 heartbeat IPC: 0.164981 cumulative IPC: 0.159321 (Simulation time: 5 hr 2 min 11 sec) 
Heartbeat CPU 0 instructions: 200000001 cycles: 965416124 heartbeat IPC: 0.161083 cumulative IPC: 0.159438 (Simulation time: 5 hr 4 min 4 sec) 
Heartbeat CPU 0 instructions: 210000000 cycles: 1027538766 heartbeat IPC: 0.160972 cumulative IPC: 0.159533 (Simulation time: 5 hr 5 min 59 sec) 
Heartbeat CPU 0 instructions: 220000000 cycles: 1089570797 heartbeat IPC: 0.161207 cumulative IPC: 0.15963 (Simulation time: 5 hr 7 min 52 sec) 
Heartbeat CPU 0 instructions: 230000001 cycles: 1151365791 heartbeat IPC: 0.161825 cumulative IPC: 0.159751 (Simulation time: 5 hr 9 min 46 sec) 
Heartbeat CPU 0 instructions: 240000002 cycles: 1213663368 heartbeat IPC: 0.16052 cumulative IPC: 0.159791 (Simulation time: 5 hr 11 min 40 sec) 
Heartbeat CPU 0 instructions: 250000001 cycles: 1276052835 heartbeat IPC: 0.160283 cumulative IPC: 0.159815 (Simulation time: 5 hr 13 min 33 sec) 
Finished CPU 0 instructions: 200000001 cycles: 1251443611 cumulative IPC: 0.159815 (Simulation time: 5 hr 13 min 33 sec) 

ChampSim completed all CPUs

Region of Interest Statistics

CPU 0 cumulative IPC: 0.159815 instructions: 200000001 cycles: 1251443611
ITLB TOTAL     ACCESS:   34914385  HIT:   34914385  MISS:          0  HIT %:        100  MISS %:          0   MPKI: 0
ITLB LOAD TRANSLATION ACCESS:   34914385  HIT:   34914385  MISS:          0  HIT %:        100  MISS %:          0   MPKI: 0
ITLB PREFETCH  REQUESTED:          0  ISSUED:          0  USEFUL:          0  USELESS:          0
ITLB USEFUL LOAD PREFETCHES:          0 PREFETCH ISSUED TO LOWER LEVEL:          0  ACCURACY: -nan
ITLB TIMELY PREFETCHES:          0 LATE PREFETCHES: 0 DROPPED PREFETCHES: 0
ITLB PREFETCHES SAME FILL-ORIGIN LEVEL: 0 DIFFERENT FILL-ORIGIN LEVEL: 0
ITLB AVERAGE MISS LATENCY: -nan cycles
ITLB RQ	ACCESS:   35020555	FORWARD:          0	MERGED:     106170	TO_CACHE:   34914385

DTLB TOTAL     ACCESS:   81889573  HIT:   76251197  MISS:    5638376  HIT %:    93.1147  MISS %:    6.88534   MPKI: 28.1919
DTLB LOAD TRANSLATION ACCESS:   81889573  HIT:   76251197  MISS:    5638376  HIT %:    93.1147  MISS %:    6.88534   MPKI: 28.1919
DTLB PREFETCH  REQUESTED:          0  ISSUED:          0  USEFUL:          0  USELESS:          0
DTLB USEFUL LOAD PREFETCHES:          0 PREFETCH ISSUED TO LOWER LEVEL:          0  ACCURACY: -nan
DTLB TIMELY PREFETCHES:          0 LATE PREFETCHES: 0 DROPPED PREFETCHES: 0
DTLB PREFETCHES SAME FILL-ORIGIN LEVEL: 0 DIFFERENT FILL-ORIGIN LEVEL: 0
DTLB AVERAGE MISS LATENCY: 937.708 cycles
DTLB RQ	ACCESS:  128692949	FORWARD:          0	MERGED:   15453261	TO_CACHE:  113239688

STLB TOTAL     ACCESS:   19039953  HIT:   14211265  MISS:    4828688  HIT %:    74.6392  MISS %:    25.3608   MPKI: 24.1434
STLB LOAD TRANSLATION ACCESS:    5638376  HIT:     833238  MISS:    4805138  HIT %:     14.778  MISS %:     85.222   MPKI: 24.0257
STLB TRANSLATION FROM L1D PREFETCHER ACCESS:   13401577  HIT:   13378027  MISS:      23550  HIT %:    99.8243  MISS %:   0.175726   MPKI: 0.11775
STLB PREFETCH  REQUESTED:          0  ISSUED:          0  USEFUL:      21604  USELESS:       1944
STLB USEFUL LOAD PREFETCHES:      21604 PREFETCH ISSUED TO LOWER LEVEL:          0  ACCURACY: inf
STLB TIMELY PREFETCHES:      21604 LATE PREFETCHES: 74387 DROPPED PREFETCHES: 1207679
STLB PREFETCHES SAME FILL-ORIGIN LEVEL: 0 DIFFERENT FILL-ORIGIN LEVEL: 0
STLB AVERAGE MISS LATENCY: 1087.17 cycles
STLB RQ	ACCESS:   41112383	FORWARD:          0	MERGED:   20129673	TO_CACHE:   20982710

STLB Hit, L1D data hit: 0
STLB Hit, L2C data hit: 0
STLB Hit, LLC data hit: 0
STLB Hit, LLC data miss: 0
STLB STLB hints to L2: 0
L1D TOTAL     ACCESS:  122213071  HIT:  104256241  MISS:   17956830  HIT %:    85.3069  MISS %:    14.6931   MPKI: 89.7841
L1D LOAD      ACCESS:   58606691  HIT:   53831319  MISS:    4775372  HIT %:    91.8518  MISS %:    8.14817   MPKI: 23.8769
L1D RFO       ACCESS:   39360915  HIT:   30614296  MISS:    8746619  HIT %:    77.7784  MISS %:    22.2216   MPKI: 43.7331
L1D PREFETCH  ACCESS:   24245465  HIT:   19810626  MISS:    4434839  HIT %:    81.7086  MISS %:    18.2914   MPKI: 22.1742
L1D PREFETCH  REQUESTED:  138309466  ISSUED:   84870114  USEFUL:    4423620  USELESS:      11211
L1D USEFUL LOAD PREFETCHES:    4423620 PREFETCH ISSUED TO LOWER LEVEL:    7061557  ACCURACY: 62.6437
L1D TIMELY PREFETCHES:    4423620 LATE PREFETCHES: 133041 DROPPED PREFETCHES: 4805057
L1D PREFETCHES SAME FILL-ORIGIN LEVEL: 4568937 DIFFERENT FILL-ORIGIN LEVEL: 2492620
L1D AVERAGE MISS LATENCY: 288.016 cycles
L1D RQ	ACCESS:   77823367	FORWARD:          0	MERGED:   17720907	TO_CACHE:   58724666
L1D WQ	ACCESS:   69973103	FORWARD:    1377876	MERGED:       4820	TO_CACHE:   69968283
L1D PQ	ACCESS:   49396113	FORWARD:          0	MERGED:   13922030	TO_CACHE:   35474001

L1D UNIQUE REGIONS ACCESSED: 0
L1D REGIONS CONFLICTS: 0
L1D Cross Page Prefetch Requests: 13591646
L1D Same Page Prefetch Requests: 59935115
L1D ROI Sum of L1D PQ occupancy: 11526968479
L1D PREFETCHES PUSHED FROM L2C: 0
L1I TOTAL     ACCESS:   35020555  HIT:   35020555  MISS:          0  HIT %:        100  MISS %:          0   MPKI: 0
L1I LOAD      ACCESS:   35020555  HIT:   35020555  MISS:          0  HIT %:        100  MISS %:          0   MPKI: 0
L1I PREFETCH  REQUESTED:          0  ISSUED:          0  USEFUL:          0  USELESS:          0
L1I USEFUL LOAD PREFETCHES:          0 PREFETCH ISSUED TO LOWER LEVEL:          0  ACCURACY: -nan
L1I TIMELY PREFETCHES:          0 LATE PREFETCHES: 0 DROPPED PREFETCHES: 0
L1I PREFETCHES SAME FILL-ORIGIN LEVEL: 0 DIFFERENT FILL-ORIGIN LEVEL: 0
L1I AVERAGE MISS LATENCY: -nan cycles
L1I RQ	ACCESS:   48394517	FORWARD:          0	MERGED:   13373962	TO_CACHE:   35020555

BTB TOTAL     ACCESS:   20480033  HIT:   20480028  MISS:          5  HIT %:        100  MISS %: 2.4414e-05   MPKI: 2.5e-05
BTB BRANCH_DIRECT_JUMP	ACCESS:    2986815  HIT:    2986814  MISS:          1
BTB BRANCH_INDIRECT	ACCESS:          0  HIT:          0  MISS:          0
BTB BRANCH_CONDITIONAL	ACCESS:    8746594  HIT:    8746592  MISS:          2
BTB BRANCH_DIRECT_CALL	ACCESS:    4373312  HIT:    4373311  MISS:          1
BTB BRANCH_INDIRECT_CALL	ACCESS:          0  HIT:          0  MISS:          0
BTB BRANCH_RETURN	ACCESS:    4373312  HIT:    4373311  MISS:          1
BTB BRANCH_OTHER ACCESS:          0  HIT:          0  MISS:          0

L2C TOTAL     ACCESS:   46544678  HIT:   23354881  MISS:   23189797  HIT %:    50.1773  MISS %:    49.8227   MPKI: 115.949
L2C LOAD      ACCESS:    4642291  HIT:    1456474  MISS:    3185817  HIT %:     31.374  MISS %:     68.626   MPKI: 15.9291
L2C DATA LOAD MPKI: 15.9291
L2C INSTRUCTION LOAD MPKI: 0
L2C RFO       ACCESS:    8746619  HIT:       2467  MISS:    8744152  HIT %:  0.0282052  MISS %:    99.9718   MPKI: 43.7208
L2C PREFETCH  ACCESS:    6618039  HIT:    1164929  MISS:    5453110  HIT %:    17.6023  MISS %:    82.3977   MPKI: 27.2655
L2C DATA PREFETCH MPKI: 27.2655
L2C INSTRUCTION PREFETCH MPKI: 0
L2C WRITEBACK ACCESS:   17945619  HIT:   16430913  MISS:    1514706  HIT %:    91.5595  MISS %:    8.44053   MPKI: 7.57353
L2C LOAD TRANSLATION ACCESS:    6874637  HIT:    2597180  MISS:    4277457  HIT %:    37.7792  MISS %:    62.2208   MPKI: 21.3873
L2C TRANSLATION FROM L1D PREFETCHER ACCESS:    1717473  HIT:    1702918  MISS:      14555  HIT %:    99.1525  MISS %:   0.847466   MPKI: 0.072775
L2C PREFETCH  REQUESTED:          0  ISSUED:          0  USEFUL:     275760  USELESS:    5192112
L2C USEFUL LOAD PREFETCHES:     275760 PREFETCH ISSUED TO LOWER LEVEL:    5483043  ACCURACY: 5.02932
L2C TIMELY PREFETCHES:     275760 LATE PREFETCHES: 29932 DROPPED PREFETCHES: 0
L2C PREFETCHES SAME FILL-ORIGIN LEVEL: 1827701 DIFFERENT FILL-ORIGIN LEVEL: 0
L2C AVERAGE MISS LATENCY: 286.726 cycles
L2C RQ	ACCESS:   21981063	FORWARD:          0	MERGED:          0	TO_CACHE:   21981023
L2C WQ	ACCESS:   17945619	FORWARD:         43	MERGED:          0	TO_CACHE:   17945619
L2C PQ	ACCESS:    7039755	FORWARD:          0	MERGED:       2481	TO_CACHE:    7037271

L2C Instructions Evicting Data 0
L2C Translations Evicting Data 3478110
L2C Data Evicting Data 14036687
L2C Instructions Evicting Instructions 0
L2C Translations Evicting Instructions 0
L2C Data Evicting Instructions 0
L2C Instructions Evicting Translations 0
L2C Translations Evicting Translations 813902
L2C Data Evicting Translations 3346392
L2C Dense regions hint from L2: 0
PSCL5 TOTAL     ACCESS:    6100298  HIT:    6100298  MISS:          0  HIT %:        100  MISS %:          0   MPKI: 0
PSCL5 LOAD TRANSLATION ACCESS:    4794682  HIT:    4794682  MISS:          0  HIT %:        100  MISS %:          0   MPKI: 0
PSCL5 TRANSLATION FROM L1D PREFETCHER ACCESS:    1305616  HIT:    1305616  MISS:          0  HIT %:        100  MISS %:          0   MPKI: 0
PSCL5 PREFETCH  REQUESTED:          0  ISSUED:          0  USEFUL:          0  USELESS:          0
PSCL5 USEFUL LOAD PREFETCHES:          0 PREFETCH ISSUED TO LOWER LEVEL:          0  ACCURACY: -nan
PSCL5 TIMELY PREFETCHES:          0 LATE PREFETCHES: 0 DROPPED PREFETCHES: 0
PSCL5 PREFETCHES SAME FILL-ORIGIN LEVEL: 0 DIFFERENT FILL-ORIGIN LEVEL: 0

PSCL4 TOTAL     ACCESS:    6100298  HIT:    6100298  MISS:          0  HIT %:        100  MISS %:          0   MPKI: 0
PSCL4 LOAD TRANSLATION ACCESS:    4794682  HIT:    4794682  MISS:          0  HIT %:        100  MISS %:          0   MPKI: 0
PSCL4 TRANSLATION FROM L1D PREFETCHER ACCESS:    1305616  HIT:    1305616  MISS:          0  HIT %:        100  MISS %:          0   MPKI: 0
PSCL4 PREFETCH  REQUESTED:          0  ISSUED:          0  USEFUL:          0  USELESS:          0
PSCL4 USEFUL LOAD PREFETCHES:          0 PREFETCH ISSUED TO LOWER LEVEL:          0  ACCURACY: -nan
PSCL4 TIMELY PREFETCHES:          0 LATE PREFETCHES: 0 DROPPED PREFETCHES: 0
PSCL4 PREFETCHES SAME FILL-ORIGIN LEVEL: 0 DIFFERENT FILL-ORIGIN LEVEL: 0

PSCL3 TOTAL     ACCESS:    6100298  HIT:    6100298  MISS:          0  HIT %:        100  MISS %:          0   MPKI: 0
PSCL3 LOAD TRANSLATION ACCESS:    4794682  HIT:    4794682  MISS:          0  HIT %:        100  MISS %:          0   MPKI: 0
PSCL3 TRANSLATION FROM L1D PREFETCHER ACCESS:    1305616  HIT:    1305616  MISS:          0  HIT %:        100  MISS %:          0   MPKI: 0
PSCL3 PREFETCH  REQUESTED:          0  ISSUED:          0  USEFUL:          0  USELESS:          0
PSCL3 USEFUL LOAD PREFETCHES:          0 PREFETCH ISSUED TO LOWER LEVEL:          0  ACCURACY: -nan
PSCL3 TIMELY PREFETCHES:          0 LATE PREFETCHES: 0 DROPPED PREFETCHES: 0
PSCL3 PREFETCHES SAME FILL-ORIGIN LEVEL: 0 DIFFERENT FILL-ORIGIN LEVEL: 0

PSCL2 TOTAL     ACCESS:    5691114  HIT:    3605281  MISS:    2085833  HIT %:    63.3493  MISS %:    36.6507   MPKI: 10.4292
PSCL2 LOAD TRANSLATION ACCESS:    4800409  HIT:    2714576  MISS:    2085833  HIT %:    56.5488  MISS %:    43.4512   MPKI: 10.4292
PSCL2 TRANSLATION FROM L1D PREFETCHER ACCESS:     890705  HIT:     890705  MISS:          0  HIT %:        100  MISS %:          0   MPKI: 0
PSCL2 PREFETCH  REQUESTED:          0  ISSUED:          0  USEFUL:          0  USELESS:          0
PSCL2 USEFUL LOAD PREFETCHES:          0 PREFETCH ISSUED TO LOWER LEVEL:          0  ACCURACY: -nan
PSCL2 TIMELY PREFETCHES:          0 LATE PREFETCHES: 0 DROPPED PREFETCHES: 0
PSCL2 PREFETCHES SAME FILL-ORIGIN LEVEL: 0 DIFFERENT FILL-ORIGIN LEVEL: 0

LLC TOTAL     ACCESS:   38425778  HIT:   19968488  MISS:   18457290  HIT %:    51.9664  MISS %:    48.0336   MPKI: 92.2864
LLC LOAD      ACCESS:    3155839  HIT:    1863445  MISS:    1292394  HIT %:    59.0475  MISS %:    40.9525   MPKI: 6.46197
LLC RFO       ACCESS:    8744151  HIT:      45440  MISS:    8698711  HIT %:   0.519662  MISS %:    99.4803   MPKI: 43.4936
LLC PREFETCH  ACCESS:    5483042  HIT:     359707  MISS:    5123335  HIT %:    6.56035  MISS %:    93.4396   MPKI: 25.6167
LLC WRITEBACK ACCESS:   16750734  HIT:   16471492  MISS:     279242  HIT %:     98.333  MISS %:    1.66704   MPKI: 1.39621
LLC LOAD TRANSLATION ACCESS:    4277457  HIT:    1225146  MISS:    3052311  HIT %:    28.6419  MISS %:    71.3581   MPKI: 15.2616
LLC TRANSLATION FROM L1D PREFETCHER ACCESS:      14555  HIT:       3258  MISS:      11297  HIT %:    22.3841  MISS %:    77.6159   MPKI: 0.056485
LLC PREFETCH  REQUESTED:          0  ISSUED:          0  USEFUL:      56733  USELESS:    5077778
LLC USEFUL LOAD PREFETCHES:      56733 PREFETCH ISSUED TO LOWER LEVEL:    5123335  ACCURACY: 1.10735
LLC TIMELY PREFETCHES:      56733 LATE PREFETCHES: 0 DROPPED PREFETCHES: 0
LLC PREFETCHES SAME FILL-ORIGIN LEVEL: 0 DIFFERENT FILL-ORIGIN LEVEL: 0
LLC AVERAGE MISS LATENCY: 325.203 cycles
LLC RQ	ACCESS:   16192052	FORWARD:          0	MERGED:          0	TO_CACHE:   16192005
LLC WQ	ACCESS:   16750734	FORWARD:         47	MERGED:          0	TO_CACHE:   16750734
LLC PQ	ACCESS:    5483043	FORWARD:          0	MERGED:          0	TO_CACHE:    5483043

LLC Dense regions hint to LLC: 0

RAW hits: 5269693
Loads Generated: 83093059
Loads sent to L1D: 77823367
Stores Generated: 69973106
Stores sent to L1D: 69973103
Major fault: 0 Minor fault: 318411
Allocated PAGES: 318411

DRAM Statistics
 CHANNEL 0
 RQ ROW_BUFFER_HIT:    1311079  ROW_BUFFER_MISS:   16864174
 DBUS_CONGESTED:         75
 WQ ROW_BUFFER_HIT:    3043517  ROW_BUFFER_MISS:   11681642  FULL:          0

 AVG_CONGESTED_CYCLE: 4
 All warmup complete: 2
Channel 0 Bank busy for read cycles: 0
Channel 0 Bank busy for write cycles: 0
Channel 0
Rank 0
0banks busy for read cycles: 1787899
0banks busy for write cycles: 16
1banks busy for read cycles: 124916934
1banks busy for write cycles: 2374446
2banks busy for read cycles: 145492484
2banks busy for write cycles: 2382911
3banks busy for read cycles: 230492374
3banks busy for write cycles: 2453108
4banks busy for read cycles: 132668334
4banks busy for write cycles: 4587320
5banks busy for read cycles: 82138544
5banks busy for write cycles: 9341375
6banks busy for read cycles: 47795256
6banks busy for write cycles: 23093280
7banks busy for read cycles: 29163026
7banks busy for write cycles: 87334064
8banks busy for read cycles: 26412956
8banks busy for write cycles: 299009285

CPU 0 Branch Prediction Accuracy: 91.0239% MPKI: 5.88832 Average ROB Occupancy at Mispredict: 115.495
Branch types
NOT_BRANCH: 175146307 87.5732%
BRANCH_DIRECT_JUMP: 2986815 1.49341%
BRANCH_INDIRECT: 0 0%
BRANCH_CONDITIONAL: 13119937 6.55997%
BRANCH_DIRECT_CALL: 4373312 2.18666%
BRANCH_INDIRECT_CALL: 0 0%
BRANCH_RETURN: 4373312 2.18666%
BRANCH_OTHER: 0 0%

DRAM PAGES: 1048576
Allocated PAGES: 318411
