 (TOTAL 523355 bits 511 Kbits) 
*** ChampSim Multicore Out-of-Order Simulator ***

Warmup Instructions: 50000000
Simulation Instructions: 200000000
Number of CPUs: 1
LLC sets: 2048
LLC ways: 16
Off-chip DRAM Size: 4096 MB Channels: 1 Width: 64-bit Data Rate: 6400 MT/s
argv[0]: ./ChampSim/Berti/bin/tagescl-no-vberti-no-no-no-no-no-lru-lru-lru-srrip-drrip-lru-lru-lru-1core-no
argv[1]: -warmup_instructions
argv[2]: 50000000
argv[3]: -simulation_instructions
argv[4]: 200000000
argv[5]: -traces
argv[6]: traces/spec2k17_ten/605.mcf_s-484B.champsimtrace.xz
CPU 0 runs traces/spec2k17_ten/605.mcf_s-484B.champsimtrace.xz
.xz
CPU 0 Tage branch predictor
BTB has LRU replacement policy
ITLB has LRU replacement policy
DTLB has LRU replacement policy
STLB has LRU replacement policy
L1I has LRU replacement policy
History Sets: 8
History Ways: 16
BERTI Size: 16
BERTI Stride Size: 16
L1D has LRU replacement policy
Initialize SRRIP state for L2C
Initialize DRRIP state for LLC
Heartbeat CPU 0 instructions: 10000001 cycles: 3209204 heartbeat IPC: 3.11604 cumulative IPC: 3.11604 (Simulation time: 0 hr 4 min 6 sec) 
Heartbeat CPU 0 instructions: 20000000 cycles: 6450736 heartbeat IPC: 3.08496 cumulative IPC: 3.10042 (Simulation time: 0 hr 9 min 18 sec) 
Heartbeat CPU 0 instructions: 30000001 cycles: 9629914 heartbeat IPC: 3.14547 cumulative IPC: 3.11529 (Simulation time: 0 hr 23 min 36 sec) 
Heartbeat CPU 0 instructions: 40000000 cycles: 12827279 heartbeat IPC: 3.12758 cumulative IPC: 3.11835 (Simulation time: 0 hr 34 min 29 sec) 
Heartbeat CPU 0 instructions: 50000000 cycles: 16039976 heartbeat IPC: 3.11265 cumulative IPC: 3.11721 (Simulation time: 0 hr 46 min 20 sec) 

Warmup complete CPU 0 instructions: 50000004 cycles: 16039977 (Simulation time: 0 hr 46 min 20 sec) 

Heartbeat CPU 0 instructions: 60000003 cycles: 37655985 heartbeat IPC: 0.46262 cumulative IPC: 0.46262 (Simulation time: 1 hr 0 min 55 sec) 
Heartbeat CPU 0 instructions: 70000002 cycles: 61639801 heartbeat IPC: 0.416948 cumulative IPC: 0.438598 (Simulation time: 1 hr 17 min 1 sec) 
Heartbeat CPU 0 instructions: 80000000 cycles: 90330635 heartbeat IPC: 0.348543 cumulative IPC: 0.403819 (Simulation time: 1 hr 30 min 36 sec) 
Heartbeat CPU 0 instructions: 90000000 cycles: 111623566 heartbeat IPC: 0.469639 cumulative IPC: 0.418482 (Simulation time: 1 hr 46 min 17 sec) 
Heartbeat CPU 0 instructions: 100000000 cycles: 131791198 heartbeat IPC: 0.495844 cumulative IPC: 0.431961 (Simulation time: 2 hr 0 min 13 sec) 
Heartbeat CPU 0 instructions: 110000000 cycles: 151254559 heartbeat IPC: 0.513786 cumulative IPC: 0.443739 (Simulation time: 2 hr 13 min 13 sec) 
Heartbeat CPU 0 instructions: 120000001 cycles: 170875795 heartbeat IPC: 0.509652 cumulative IPC: 0.452092 (Simulation time: 2 hr 27 min 26 sec) 
Heartbeat CPU 0 instructions: 130000000 cycles: 191683712 heartbeat IPC: 0.480586 cumulative IPC: 0.455467 (Simulation time: 2 hr 41 min 5 sec) 
Heartbeat CPU 0 instructions: 140000001 cycles: 210646029 heartbeat IPC: 0.527362 cumulative IPC: 0.462473 (Simulation time: 2 hr 52 min 17 sec) 
Heartbeat CPU 0 instructions: 150000002 cycles: 230515752 heartbeat IPC: 0.503278 cumulative IPC: 0.466253 (Simulation time: 3 hr 5 min 15 sec) 
Heartbeat CPU 0 instructions: 160000000 cycles: 254016508 heartbeat IPC: 0.425518 cumulative IPC: 0.46223 (Simulation time: 3 hr 18 min 32 sec) 
Heartbeat CPU 0 instructions: 170000000 cycles: 275091365 heartbeat IPC: 0.474499 cumulative IPC: 0.463229 (Simulation time: 3 hr 32 min 22 sec) 
Heartbeat CPU 0 instructions: 180000001 cycles: 295262269 heartbeat IPC: 0.495764 cumulative IPC: 0.465579 (Simulation time: 3 hr 46 min 52 sec) 
Heartbeat CPU 0 instructions: 190000000 cycles: 315378808 heartbeat IPC: 0.497103 cumulative IPC: 0.467697 (Simulation time: 3 hr 57 min 51 sec) 
Heartbeat CPU 0 instructions: 200000003 cycles: 333186019 heartbeat IPC: 0.56157 cumulative IPC: 0.472968 (Simulation time: 4 hr 8 min 59 sec) 
Heartbeat CPU 0 instructions: 210000002 cycles: 358701192 heartbeat IPC: 0.391924 cumulative IPC: 0.466933 (Simulation time: 4 hr 18 min 11 sec) 
Heartbeat CPU 0 instructions: 220000000 cycles: 377282937 heartbeat IPC: 0.538162 cumulative IPC: 0.470597 (Simulation time: 4 hr 26 min 15 sec) 
Heartbeat CPU 0 instructions: 230000002 cycles: 400266067 heartbeat IPC: 0.435102 cumulative IPC: 0.468474 (Simulation time: 4 hr 33 min 4 sec) 
Heartbeat CPU 0 instructions: 240000000 cycles: 422337159 heartbeat IPC: 0.453081 cumulative IPC: 0.467638 (Simulation time: 4 hr 38 min 0 sec) 
Heartbeat CPU 0 instructions: 250000001 cycles: 444331256 heartbeat IPC: 0.454668 cumulative IPC: 0.466972 (Simulation time: 4 hr 42 min 26 sec) 
Finished CPU 0 instructions: 200000001 cycles: 428291281 cumulative IPC: 0.466972 (Simulation time: 4 hr 42 min 26 sec) 

ChampSim completed all CPUs

Region of Interest Statistics

CPU 0 cumulative IPC: 0.466972 instructions: 200000001 cycles: 428291281
ITLB TOTAL     ACCESS:   32020716  HIT:   32020716  MISS:          0  HIT %:        100  MISS %:          0   MPKI: 0
ITLB LOAD TRANSLATION ACCESS:   32020716  HIT:   32020716  MISS:          0  HIT %:        100  MISS %:          0   MPKI: 0
ITLB PREFETCH  REQUESTED:          0  ISSUED:          0  USEFUL:          0  USELESS:          0
ITLB USEFUL LOAD PREFETCHES:          0 PREFETCH ISSUED TO LOWER LEVEL:          0  ACCURACY: -nan
ITLB TIMELY PREFETCHES:          0 LATE PREFETCHES: 0 DROPPED PREFETCHES: 0
ITLB PREFETCHES SAME FILL-ORIGIN LEVEL: 0 DIFFERENT FILL-ORIGIN LEVEL: 0
ITLB AVERAGE MISS LATENCY: -nan cycles
ITLB RQ	ACCESS:   42427536	FORWARD:          0	MERGED:   10406821	TO_CACHE:   32020715

DTLB TOTAL     ACCESS:   52891389  HIT:   52414295  MISS:     477094  HIT %:     99.098  MISS %:   0.902026   MPKI: 2.38547
DTLB LOAD TRANSLATION ACCESS:   52891389  HIT:   52414295  MISS:     477094  HIT %:     99.098  MISS %:   0.902026   MPKI: 2.38547
DTLB PREFETCH  REQUESTED:          0  ISSUED:          0  USEFUL:          0  USELESS:          0
DTLB USEFUL LOAD PREFETCHES:          0 PREFETCH ISSUED TO LOWER LEVEL:          0  ACCURACY: -nan
DTLB TIMELY PREFETCHES:          0 LATE PREFETCHES: 0 DROPPED PREFETCHES: 0
DTLB PREFETCHES SAME FILL-ORIGIN LEVEL: 0 DIFFERENT FILL-ORIGIN LEVEL: 0
DTLB AVERAGE MISS LATENCY: 22.941 cycles
DTLB RQ	ACCESS:   93157661	FORWARD:          0	MERGED:   40247514	TO_CACHE:   52910147

STLB TOTAL     ACCESS:    9053018  HIT:    8907127  MISS:     145891  HIT %:    98.3885  MISS %:    1.61152   MPKI: 0.729455
STLB LOAD TRANSLATION ACCESS:     477094  HIT:     430794  MISS:      46300  HIT %:    90.2954  MISS %:    9.70459   MPKI: 0.2315
STLB TRANSLATION FROM L1D PREFETCHER ACCESS:    8575924  HIT:    8476333  MISS:      99591  HIT %:    98.8387  MISS %:    1.16129   MPKI: 0.497955
STLB PREFETCH  REQUESTED:          0  ISSUED:          0  USEFUL:      99554  USELESS:         36
STLB USEFUL LOAD PREFETCHES:      99554 PREFETCH ISSUED TO LOWER LEVEL:          0  ACCURACY: inf
STLB TIMELY PREFETCHES:      99554 LATE PREFETCHES: 481 DROPPED PREFETCHES: 131344
STLB PREFETCHES SAME FILL-ORIGIN LEVEL: 0 DIFFERENT FILL-ORIGIN LEVEL: 0
STLB AVERAGE MISS LATENCY: 87.7487 cycles
STLB RQ	ACCESS:   30418504	FORWARD:          0	MERGED:   21200539	TO_CACHE:    9217965

STLB Hit, L1D data hit: 0
STLB Hit, L2C data hit: 0
STLB Hit, LLC data hit: 0
STLB Hit, LLC data miss: 0
STLB STLB hints to L2: 0
L1D TOTAL     ACCESS:  106170373  HIT:  100446706  MISS:    5723667  HIT %:     94.609  MISS %:    5.39102   MPKI: 28.6183
L1D LOAD      ACCESS:   36250324  HIT:   34098420  MISS:    2151904  HIT %:    94.0638  MISS %:    5.93623   MPKI: 10.7595
L1D RFO       ACCESS:   55110389  HIT:   54617279  MISS:     493110  HIT %:    99.1052  MISS %:   0.894768   MPKI: 2.46555
L1D PREFETCH  ACCESS:   14809660  HIT:   11731007  MISS:    3078653  HIT %:    79.2119  MISS %:    20.7881   MPKI: 15.3933
L1D PREFETCH  REQUESTED:   79607063  ISSUED:   61900498  USEFUL:    2786626  USELESS:     292072
L1D USEFUL LOAD PREFETCHES:    2786626 PREFETCH ISSUED TO LOWER LEVEL:   22969782  ACCURACY: 12.1317
L1D TIMELY PREFETCHES:    2786626 LATE PREFETCHES: 201261 DROPPED PREFETCHES: 184420
L1D PREFETCHES SAME FILL-ORIGIN LEVEL: 3745422 DIFFERENT FILL-ORIGIN LEVEL: 19224360
L1D AVERAGE MISS LATENCY: 120.645 cycles
L1D RQ	ACCESS:   62805165	FORWARD:          0	MERGED:   26383828	TO_CACHE:   36311915
L1D WQ	ACCESS:   57343188	FORWARD:     109422	MERGED:     497442	TO_CACHE:   56845746
L1D PQ	ACCESS:   31959088	FORWARD:          0	MERGED:    2017678	TO_CACHE:   29941410

L1D UNIQUE REGIONS ACCESSED: 0
L1D REGIONS CONFLICTS: 0
L1D Cross Page Prefetch Requests: 8092338
L1D Same Page Prefetch Requests: 28707901
L1D ROI Sum of L1D PQ occupancy: 600364184
L1D PREFETCHES PUSHED FROM L2C: 0
L1I TOTAL     ACCESS:   42427536  HIT:   42427536  MISS:          0  HIT %:        100  MISS %:          0   MPKI: 0
L1I LOAD      ACCESS:   42427536  HIT:   42427536  MISS:          0  HIT %:        100  MISS %:          0   MPKI: 0
L1I PREFETCH  REQUESTED:          0  ISSUED:          0  USEFUL:          0  USELESS:          0
L1I USEFUL LOAD PREFETCHES:          0 PREFETCH ISSUED TO LOWER LEVEL:          0  ACCURACY: -nan
L1I TIMELY PREFETCHES:          0 LATE PREFETCHES: 0 DROPPED PREFETCHES: 0
L1I PREFETCHES SAME FILL-ORIGIN LEVEL: 0 DIFFERENT FILL-ORIGIN LEVEL: 0
L1I AVERAGE MISS LATENCY: -nan cycles
L1I RQ	ACCESS:   59137596	FORWARD:          0	MERGED:   16710060	TO_CACHE:   42427536

BTB TOTAL     ACCESS:   19468368  HIT:   19468334  MISS:         34  HIT %:    99.9998  MISS %: 0.000174642   MPKI: 0.00017
BTB BRANCH_DIRECT_JUMP	ACCESS:     976614  HIT:     976608  MISS:          6
BTB BRANCH_INDIRECT	ACCESS:          0  HIT:          0  MISS:          0
BTB BRANCH_CONDITIONAL	ACCESS:   18491566  HIT:   18491542  MISS:         24
BTB BRANCH_DIRECT_CALL	ACCESS:         94  HIT:         92  MISS:          2
BTB BRANCH_INDIRECT_CALL	ACCESS:          0  HIT:          0  MISS:          0
BTB BRANCH_RETURN	ACCESS:         94  HIT:         92  MISS:          2
BTB BRANCH_OTHER ACCESS:          0  HIT:          0  MISS:          0

L2C TOTAL     ACCESS:   17646458  HIT:   10872091  MISS:    6774367  HIT %:    61.6106  MISS %:    38.3894   MPKI: 33.8718
L2C LOAD      ACCESS:    1950608  HIT:    1056434  MISS:     894174  HIT %:    54.1592  MISS %:    45.8408   MPKI: 4.47087
L2C DATA LOAD MPKI: 4.47087
L2C INSTRUCTION LOAD MPKI: 0
L2C RFO       ACCESS:     493043  HIT:      20751  MISS:     472292  HIT %:    4.20876  MISS %:    95.7912   MPKI: 2.36146
L2C PREFETCH  ACCESS:   13671548  HIT:    8323136  MISS:    5348412  HIT %:    60.8793  MISS %:    39.1207   MPKI: 26.7421
L2C DATA PREFETCH MPKI: 26.7421
L2C INSTRUCTION PREFETCH MPKI: 0
L2C WRITEBACK ACCESS:    1247680  HIT:    1210333  MISS:      37347  HIT %:    97.0067  MISS %:    2.99332   MPKI: 0.186735
L2C LOAD TRANSLATION ACCESS:      46121  HIT:      38951  MISS:       7170  HIT %:    84.4539  MISS %:    15.5461   MPKI: 0.03585
L2C TRANSLATION FROM L1D PREFETCHER ACCESS:     237458  HIT:     222486  MISS:      14972  HIT %:    93.6949  MISS %:    6.30512   MPKI: 0.07486
L2C PREFETCH  REQUESTED:          0  ISSUED:          0  USEFUL:     984515  USELESS:    4379789
L2C USEFUL LOAD PREFETCHES:     984515 PREFETCH ISSUED TO LOWER LEVEL:    5468620  ACCURACY: 18.003
L2C TIMELY PREFETCHES:     984515 LATE PREFETCHES: 120208 DROPPED PREFETCHES: 0
L2C PREFETCHES SAME FILL-ORIGIN LEVEL: 4290811 DIFFERENT FILL-ORIGIN LEVEL: 0
L2C AVERAGE MISS LATENCY: 228.72 cycles
L2C RQ	ACCESS:    2727273	FORWARD:          0	MERGED:          0	TO_CACHE:    2727230
L2C WQ	ACCESS:    1247680	FORWARD:         48	MERGED:          0	TO_CACHE:    1247680
L2C PQ	ACCESS:   16367183	FORWARD:          0	MERGED:     205637	TO_CACHE:   16161541

L2C Instructions Evicting Data 0
L2C Translations Evicting Data 22096
L2C Data Evicting Data 6693009
L2C Instructions Evicting Instructions 0
L2C Translations Evicting Instructions 0
L2C Data Evicting Instructions 0
L2C Instructions Evicting Translations 0
L2C Translations Evicting Translations 46
L2C Data Evicting Translations 21869
L2C Dense regions hint from L2: 0
PSCL5 TOTAL     ACCESS:     277268  HIT:     277268  MISS:          0  HIT %:        100  MISS %:          0   MPKI: 0
PSCL5 LOAD TRANSLATION ACCESS:      45852  HIT:      45852  MISS:          0  HIT %:        100  MISS %:          0   MPKI: 0
PSCL5 TRANSLATION FROM L1D PREFETCHER ACCESS:     231416  HIT:     231416  MISS:          0  HIT %:        100  MISS %:          0   MPKI: 0
PSCL5 PREFETCH  REQUESTED:          0  ISSUED:          0  USEFUL:          0  USELESS:          0
PSCL5 USEFUL LOAD PREFETCHES:          0 PREFETCH ISSUED TO LOWER LEVEL:          0  ACCURACY: -nan
PSCL5 TIMELY PREFETCHES:          0 LATE PREFETCHES: 0 DROPPED PREFETCHES: 0
PSCL5 PREFETCHES SAME FILL-ORIGIN LEVEL: 0 DIFFERENT FILL-ORIGIN LEVEL: 0

PSCL4 TOTAL     ACCESS:     277268  HIT:     277268  MISS:          0  HIT %:        100  MISS %:          0   MPKI: 0
PSCL4 LOAD TRANSLATION ACCESS:      45852  HIT:      45852  MISS:          0  HIT %:        100  MISS %:          0   MPKI: 0
PSCL4 TRANSLATION FROM L1D PREFETCHER ACCESS:     231416  HIT:     231416  MISS:          0  HIT %:        100  MISS %:          0   MPKI: 0
PSCL4 PREFETCH  REQUESTED:          0  ISSUED:          0  USEFUL:          0  USELESS:          0
PSCL4 USEFUL LOAD PREFETCHES:          0 PREFETCH ISSUED TO LOWER LEVEL:          0  ACCURACY: -nan
PSCL4 TIMELY PREFETCHES:          0 LATE PREFETCHES: 0 DROPPED PREFETCHES: 0
PSCL4 PREFETCHES SAME FILL-ORIGIN LEVEL: 0 DIFFERENT FILL-ORIGIN LEVEL: 0

PSCL3 TOTAL     ACCESS:     277268  HIT:     277268  MISS:          0  HIT %:        100  MISS %:          0   MPKI: 0
PSCL3 LOAD TRANSLATION ACCESS:      45852  HIT:      45852  MISS:          0  HIT %:        100  MISS %:          0   MPKI: 0
PSCL3 TRANSLATION FROM L1D PREFETCHER ACCESS:     231416  HIT:     231416  MISS:          0  HIT %:        100  MISS %:          0   MPKI: 0
PSCL3 PREFETCH  REQUESTED:          0  ISSUED:          0  USEFUL:          0  USELESS:          0
PSCL3 USEFUL LOAD PREFETCHES:          0 PREFETCH ISSUED TO LOWER LEVEL:          0  ACCURACY: -nan
PSCL3 TIMELY PREFETCHES:          0 LATE PREFETCHES: 0 DROPPED PREFETCHES: 0
PSCL3 PREFETCHES SAME FILL-ORIGIN LEVEL: 0 DIFFERENT FILL-ORIGIN LEVEL: 0

PSCL2 TOTAL     ACCESS:     270741  HIT:     270291  MISS:        450  HIT %:    99.8338  MISS %:   0.166211   MPKI: 0.00225
PSCL2 LOAD TRANSLATION ACCESS:      45936  HIT:      45486  MISS:        450  HIT %:    99.0204  MISS %:   0.979624   MPKI: 0.00225
PSCL2 TRANSLATION FROM L1D PREFETCHER ACCESS:     224805  HIT:     224805  MISS:          0  HIT %:        100  MISS %:          0   MPKI: 0
PSCL2 PREFETCH  REQUESTED:          0  ISSUED:          0  USEFUL:          0  USELESS:          0
PSCL2 USEFUL LOAD PREFETCHES:          0 PREFETCH ISSUED TO LOWER LEVEL:          0  ACCURACY: -nan
PSCL2 TIMELY PREFETCHES:          0 LATE PREFETCHES: 0 DROPPED PREFETCHES: 0
PSCL2 PREFETCHES SAME FILL-ORIGIN LEVEL: 0 DIFFERENT FILL-ORIGIN LEVEL: 0

LLC TOTAL     ACCESS:    7903823  HIT:     647720  MISS:    7256103  HIT %:    8.19502  MISS %:     91.805   MPKI: 36.2805
LLC LOAD      ACCESS:     777706  HIT:      15327  MISS:     762379  HIT %:     1.9708  MISS %:    98.0292   MPKI: 3.81189
LLC RFO       ACCESS:     468552  HIT:        249  MISS:     468303  HIT %:  0.0531424  MISS %:    99.9469   MPKI: 2.34151
LLC PREFETCH  ACCESS:    5468620  HIT:     566823  MISS:    4901797  HIT %:     10.365  MISS %:     89.635   MPKI: 24.509
LLC WRITEBACK ACCESS:    1166803  HIT:      63013  MISS:    1103790  HIT %:    5.40048  MISS %:    94.5995   MPKI: 5.51895
LLC LOAD TRANSLATION ACCESS:       7170  HIT:        237  MISS:       6933  HIT %:    3.30544  MISS %:    96.6946   MPKI: 0.034665
LLC TRANSLATION FROM L1D PREFETCHER ACCESS:      14972  HIT:       2071  MISS:      12901  HIT %:    13.8325  MISS %:    86.1675   MPKI: 0.064505
LLC PREFETCH  REQUESTED:          0  ISSUED:          0  USEFUL:       2839  USELESS:    4899976
LLC USEFUL LOAD PREFETCHES:       2839 PREFETCH ISSUED TO LOWER LEVEL:    4901797  ACCURACY: 0.0579175
LLC TIMELY PREFETCHES:       2839 LATE PREFETCHES: 0 DROPPED PREFETCHES: 0
LLC PREFETCHES SAME FILL-ORIGIN LEVEL: 0 DIFFERENT FILL-ORIGIN LEVEL: 0
LLC AVERAGE MISS LATENCY: 188.858 cycles
LLC RQ	ACCESS:    1268400	FORWARD:          0	MERGED:          0	TO_CACHE:    1268400
LLC WQ	ACCESS:    1166803	FORWARD:          0	MERGED:          0	TO_CACHE:    1166803
LLC PQ	ACCESS:    5468620	FORWARD:          0	MERGED:          0	TO_CACHE:    5468620

LLC Dense regions hint to LLC: 0

RAW hits: 1362355
Loads Generated: 64167520
Loads sent to L1D: 62805165
Stores Generated: 57343186
Stores sent to L1D: 57343188
Major fault: 0 Minor fault: 60491
Allocated PAGES: 60491

DRAM Statistics
 CHANNEL 0
 RQ ROW_BUFFER_HIT:    3482834  ROW_BUFFER_MISS:    2669479
 DBUS_CONGESTED:        936
 WQ ROW_BUFFER_HIT:     150722  ROW_BUFFER_MISS:    1020710  FULL:          0

 AVG_CONGESTED_CYCLE: 4
 All warmup complete: 2
Channel 0 Bank busy for read cycles: 0
Channel 0 Bank busy for write cycles: 0
Channel 0
Rank 0
0banks busy for read cycles: 131092322
0banks busy for write cycles: 236218
1banks busy for read cycles: 97226906
1banks busy for write cycles: 31996321
2banks busy for read cycles: 32958010
2banks busy for write cycles: 20586830
3banks busy for read cycles: 17161774
3banks busy for write cycles: 13538875
4banks busy for read cycles: 13015529
4banks busy for write cycles: 8121833
5banks busy for read cycles: 9050123
5banks busy for write cycles: 4538615
6banks busy for read cycles: 7763283
6banks busy for write cycles: 2418273
7banks busy for read cycles: 11355113
7banks busy for write cycles: 2198260
8banks busy for read cycles: 17897211
8banks busy for write cycles: 7135786

CPU 0 Branch Prediction Accuracy: 99.1806% MPKI: 0.773275 Average ROB Occupancy at Mispredict: 242.049
Branch types
NOT_BRANCH: 180147904 90.074%
BRANCH_DIRECT_JUMP: 976614 0.488307%
BRANCH_INDIRECT: 0 0%
BRANCH_CONDITIONAL: 18875254 9.43763%
BRANCH_DIRECT_CALL: 94 4.7e-05%
BRANCH_INDIRECT_CALL: 0 0%
BRANCH_RETURN: 94 4.7e-05%
BRANCH_OTHER: 0 0%

DRAM PAGES: 1048576
Allocated PAGES: 60491
