 (TOTAL 523355 bits 511 Kbits) 
*** ChampSim Multicore Out-of-Order Simulator ***

Warmup Instructions: 50000000
Simulation Instructions: 200000000
Number of CPUs: 1
LLC sets: 2048
LLC ways: 16
Off-chip DRAM Size: 4096 MB Channels: 1 Width: 64-bit Data Rate: 6400 MT/s
argv[0]: ./ChampSim/Berti/bin/tagescl-no-vberti-no-no-no-no-no-lru-lru-lru-srrip-drrip-lru-lru-lru-1core-no
argv[1]: -warmup_instructions
argv[2]: 50000000
argv[3]: -simulation_instructions
argv[4]: 200000000
argv[5]: -traces
argv[6]: traces/spec2k17_ten/605.mcf_s-665B.champsimtrace.xz
CPU 0 runs traces/spec2k17_ten/605.mcf_s-665B.champsimtrace.xz
.xz
CPU 0 Tage branch predictor
BTB has LRU replacement policy
ITLB has LRU replacement policy
DTLB has LRU replacement policy
STLB has LRU replacement policy
L1I has LRU replacement policy
History Sets: 8
History Ways: 16
BERTI Size: 16
BERTI Stride Size: 16
L1D has LRU replacement policy
Initialize SRRIP state for L2C
Initialize DRRIP state for LLC
Heartbeat CPU 0 instructions: 10000000 cycles: 3309012 heartbeat IPC: 3.02205 cumulative IPC: 3.02205 (Simulation time: 0 hr 5 min 47 sec) 
Heartbeat CPU 0 instructions: 20000000 cycles: 6618034 heartbeat IPC: 3.02204 cumulative IPC: 3.02205 (Simulation time: 0 hr 10 min 55 sec) 
Heartbeat CPU 0 instructions: 30000002 cycles: 9920940 heartbeat IPC: 3.02764 cumulative IPC: 3.02391 (Simulation time: 0 hr 19 min 9 sec) 
Heartbeat CPU 0 instructions: 40000003 cycles: 13225118 heartbeat IPC: 3.02647 cumulative IPC: 3.02455 (Simulation time: 0 hr 29 min 26 sec) 
Heartbeat CPU 0 instructions: 50000002 cycles: 16525253 heartbeat IPC: 3.03018 cumulative IPC: 3.02567 (Simulation time: 0 hr 41 min 3 sec) 

Warmup complete CPU 0 instructions: 50000002 cycles: 16525253 (Simulation time: 0 hr 41 min 3 sec) 

Heartbeat CPU 0 instructions: 60000003 cycles: 50496161 heartbeat IPC: 0.29437 cumulative IPC: 0.29437 (Simulation time: 0 hr 52 min 58 sec) 
Heartbeat CPU 0 instructions: 70000003 cycles: 84357990 heartbeat IPC: 0.295318 cumulative IPC: 0.294843 (Simulation time: 1 hr 4 min 55 sec) 
Heartbeat CPU 0 instructions: 80000000 cycles: 118255530 heartbeat IPC: 0.295007 cumulative IPC: 0.294897 (Simulation time: 1 hr 17 min 2 sec) 
Heartbeat CPU 0 instructions: 90000002 cycles: 153028773 heartbeat IPC: 0.287577 cumulative IPC: 0.293033 (Simulation time: 1 hr 28 min 48 sec) 
Heartbeat CPU 0 instructions: 100000000 cycles: 186991077 heartbeat IPC: 0.294444 cumulative IPC: 0.293314 (Simulation time: 1 hr 39 min 59 sec) 
Heartbeat CPU 0 instructions: 110000000 cycles: 220920874 heartbeat IPC: 0.294726 cumulative IPC: 0.293548 (Simulation time: 1 hr 50 min 42 sec) 
Heartbeat CPU 0 instructions: 120000000 cycles: 254693358 heartbeat IPC: 0.296099 cumulative IPC: 0.29391 (Simulation time: 2 hr 1 min 31 sec) 
Heartbeat CPU 0 instructions: 130000000 cycles: 288460211 heartbeat IPC: 0.296148 cumulative IPC: 0.294188 (Simulation time: 2 hr 12 min 20 sec) 
Heartbeat CPU 0 instructions: 140000002 cycles: 322887906 heartbeat IPC: 0.290464 cumulative IPC: 0.293769 (Simulation time: 2 hr 24 min 41 sec) 
Heartbeat CPU 0 instructions: 150000000 cycles: 357169821 heartbeat IPC: 0.291699 cumulative IPC: 0.293561 (Simulation time: 2 hr 36 min 11 sec) 
Heartbeat CPU 0 instructions: 160000001 cycles: 391203255 heartbeat IPC: 0.293829 cumulative IPC: 0.293585 (Simulation time: 2 hr 47 min 17 sec) 
Heartbeat CPU 0 instructions: 170000003 cycles: 425697240 heartbeat IPC: 0.289906 cumulative IPC: 0.293275 (Simulation time: 2 hr 57 min 3 sec) 
Heartbeat CPU 0 instructions: 180000001 cycles: 459717408 heartbeat IPC: 0.293943 cumulative IPC: 0.293326 (Simulation time: 3 hr 8 min 38 sec) 
Heartbeat CPU 0 instructions: 190000002 cycles: 493722658 heartbeat IPC: 0.294072 cumulative IPC: 0.29338 (Simulation time: 3 hr 20 min 39 sec) 
Heartbeat CPU 0 instructions: 200000000 cycles: 527891273 heartbeat IPC: 0.292666 cumulative IPC: 0.293332 (Simulation time: 3 hr 32 min 18 sec) 
Heartbeat CPU 0 instructions: 210000000 cycles: 561924205 heartbeat IPC: 0.293833 cumulative IPC: 0.293363 (Simulation time: 3 hr 43 min 25 sec) 
Heartbeat CPU 0 instructions: 220000000 cycles: 595680898 heartbeat IPC: 0.296238 cumulative IPC: 0.293531 (Simulation time: 3 hr 54 min 56 sec) 
Heartbeat CPU 0 instructions: 230000000 cycles: 630513529 heartbeat IPC: 0.287087 cumulative IPC: 0.293165 (Simulation time: 4 hr 3 min 54 sec) 
Heartbeat CPU 0 instructions: 240000000 cycles: 664322018 heartbeat IPC: 0.295784 cumulative IPC: 0.293302 (Simulation time: 4 hr 12 min 16 sec) 
Heartbeat CPU 0 instructions: 250000002 cycles: 698321201 heartbeat IPC: 0.294125 cumulative IPC: 0.293343 (Simulation time: 4 hr 17 min 25 sec) 
Finished CPU 0 instructions: 200000000 cycles: 681795948 cumulative IPC: 0.293343 (Simulation time: 4 hr 17 min 25 sec) 

ChampSim completed all CPUs

Region of Interest Statistics

CPU 0 cumulative IPC: 0.293343 instructions: 200000000 cycles: 681795948
ITLB TOTAL     ACCESS:   36160159  HIT:   36160159  MISS:          0  HIT %:        100  MISS %:          0   MPKI: 0
ITLB LOAD TRANSLATION ACCESS:   36160159  HIT:   36160159  MISS:          0  HIT %:        100  MISS %:          0   MPKI: 0
ITLB PREFETCH  REQUESTED:          0  ISSUED:          0  USEFUL:          0  USELESS:          0
ITLB USEFUL LOAD PREFETCHES:          0 PREFETCH ISSUED TO LOWER LEVEL:          0  ACCURACY: -nan
ITLB TIMELY PREFETCHES:          0 LATE PREFETCHES: 0 DROPPED PREFETCHES: 0
ITLB PREFETCHES SAME FILL-ORIGIN LEVEL: 0 DIFFERENT FILL-ORIGIN LEVEL: 0
ITLB AVERAGE MISS LATENCY: -nan cycles
ITLB RQ	ACCESS:   39337923	FORWARD:          0	MERGED:    3177765	TO_CACHE:   36160158

DTLB TOTAL     ACCESS:   62185302  HIT:   59189772  MISS:    2995530  HIT %:    95.1829  MISS %:     4.8171   MPKI: 14.9777
DTLB LOAD TRANSLATION ACCESS:   62185302  HIT:   59189772  MISS:    2995530  HIT %:    95.1829  MISS %:     4.8171   MPKI: 14.9777
DTLB PREFETCH  REQUESTED:          0  ISSUED:          0  USEFUL:          0  USELESS:          0
DTLB USEFUL LOAD PREFETCHES:          0 PREFETCH ISSUED TO LOWER LEVEL:          0  ACCURACY: -nan
DTLB TIMELY PREFETCHES:          0 LATE PREFETCHES: 0 DROPPED PREFETCHES: 0
DTLB PREFETCHES SAME FILL-ORIGIN LEVEL: 0 DIFFERENT FILL-ORIGIN LEVEL: 0
DTLB AVERAGE MISS LATENCY: 10.5151 cycles
DTLB RQ	ACCESS:   76070093	FORWARD:          0	MERGED:   13513076	TO_CACHE:   62557017

STLB TOTAL     ACCESS:    9535882  HIT:    9493798  MISS:      42084  HIT %:    99.5587  MISS %:   0.441323   MPKI: 0.21042
STLB LOAD TRANSLATION ACCESS:    2995530  HIT:    2953603  MISS:      41927  HIT %:    98.6003  MISS %:    1.39965   MPKI: 0.209635
STLB TRANSLATION FROM L1D PREFETCHER ACCESS:    6540352  HIT:    6540195  MISS:        157  HIT %:    99.9976  MISS %: 0.00240048   MPKI: 0.000785
STLB PREFETCH  REQUESTED:          0  ISSUED:          0  USEFUL:        122  USELESS:         34
STLB USEFUL LOAD PREFETCHES:        122 PREFETCH ISSUED TO LOWER LEVEL:          0  ACCURACY: inf
STLB TIMELY PREFETCHES:        122 LATE PREFETCHES: 6240 DROPPED PREFETCHES: 701183
STLB PREFETCHES SAME FILL-ORIGIN LEVEL: 0 DIFFERENT FILL-ORIGIN LEVEL: 0
STLB AVERAGE MISS LATENCY: 90.4176 cycles
STLB RQ	ACCESS:   31963781	FORWARD:          0	MERGED:   21685559	TO_CACHE:   10278222

STLB Hit, L1D data hit: 0
STLB Hit, L2C data hit: 0
STLB Hit, LLC data hit: 0
STLB Hit, LLC data miss: 0
STLB STLB hints to L2: 0
L1D TOTAL     ACCESS:   97374703  HIT:   90390066  MISS:    6984637  HIT %:    92.8271  MISS %:    7.17295   MPKI: 34.9232
L1D LOAD      ACCESS:   52437047  HIT:   47588332  MISS:    4848715  HIT %:    90.7533  MISS %:    9.24674   MPKI: 24.2436
L1D RFO       ACCESS:   22349741  HIT:   21595307  MISS:     754434  HIT %:    96.6244  MISS %:    3.37558   MPKI: 3.77217
L1D PREFETCH  ACCESS:   22587915  HIT:   21206427  MISS:    1381488  HIT %:     93.884  MISS %:    6.11605   MPKI: 6.90744
L1D PREFETCH  REQUESTED:   62825512  ISSUED:   60142990  USEFUL:    1373149  USELESS:       8336
L1D USEFUL LOAD PREFETCHES:    1373149 PREFETCH ISSUED TO LOWER LEVEL:    4734074  ACCURACY: 29.0057
L1D TIMELY PREFETCHES:    1373149 LATE PREFETCHES: 21394 DROPPED PREFETCHES: 2189612
L1D PREFETCHES SAME FILL-ORIGIN LEVEL: 1402882 DIFFERENT FILL-ORIGIN LEVEL: 3331192
L1D AVERAGE MISS LATENCY: 64.8741 cycles
L1D RQ	ACCESS:   67193111	FORWARD:          0	MERGED:   12471886	TO_CACHE:   52478637
L1D WQ	ACCESS:   23674381	FORWARD:    2256101	MERGED:      82925	TO_CACHE:   23591456
L1D PQ	ACCESS:   31174739	FORWARD:          0	MERGED:    2192975	TO_CACHE:   28968251

L1D UNIQUE REGIONS ACCESSED: 0
L1D REGIONS CONFLICTS: 0
L1D Cross Page Prefetch Requests: 5006617
L1D Same Page Prefetch Requests: 35283031
L1D ROI Sum of L1D PQ occupancy: 502241477
L1D PREFETCHES PUSHED FROM L2C: 0
L1I TOTAL     ACCESS:   39337924  HIT:   39337922  MISS:          2  HIT %:        100  MISS %: 5.08415e-06   MPKI: 1e-05
L1I LOAD      ACCESS:   39337924  HIT:   39337922  MISS:          2  HIT %:        100  MISS %: 5.08415e-06   MPKI: 1e-05
L1I PREFETCH  REQUESTED:          0  ISSUED:          0  USEFUL:          0  USELESS:          0
L1I USEFUL LOAD PREFETCHES:          0 PREFETCH ISSUED TO LOWER LEVEL:          0  ACCURACY: -nan
L1I TIMELY PREFETCHES:          0 LATE PREFETCHES: 0 DROPPED PREFETCHES: 0
L1I PREFETCHES SAME FILL-ORIGIN LEVEL: 0 DIFFERENT FILL-ORIGIN LEVEL: 0
L1I AVERAGE MISS LATENCY: 214 cycles
L1I RQ	ACCESS:   62545415	FORWARD:          0	MERGED:   23207492	TO_CACHE:   39337923

BTB TOTAL     ACCESS:   47317451  HIT:   44887025  MISS:    2430426  HIT %:    94.8636  MISS %:    5.13643   MPKI: 12.1521
BTB BRANCH_DIRECT_JUMP	ACCESS:    5163667  HIT:    5163630  MISS:         37
BTB BRANCH_INDIRECT	ACCESS:          0  HIT:          0  MISS:          0
BTB BRANCH_CONDITIONAL	ACCESS:   31033862  HIT:   31033783  MISS:         79
BTB BRANCH_DIRECT_CALL	ACCESS:    5259752  HIT:    5259734  MISS:         18
BTB BRANCH_INDIRECT_CALL	ACCESS:     300210  HIT:     300202  MISS:          8
BTB BRANCH_RETURN	ACCESS:    5559960  HIT:    3129676  MISS:    2430284
BTB BRANCH_OTHER ACCESS:          0  HIT:          0  MISS:          0

L2C TOTAL     ACCESS:   11962507  HIT:    7920486  MISS:    4042021  HIT %:    66.2109  MISS %:    33.7891   MPKI: 20.2101
L2C LOAD      ACCESS:    4827300  HIT:    2407399  MISS:    2419901  HIT %:    49.8705  MISS %:    50.1295   MPKI: 12.0995
L2C DATA LOAD MPKI: 12.0995
L2C INSTRUCTION LOAD MPKI: 1e-05
L2C RFO       ACCESS:     754428  HIT:     678301  MISS:      76127  HIT %:    89.9093  MISS %:    10.0907   MPKI: 0.380635
L2C PREFETCH  ACCESS:    4592818  HIT:    3065162  MISS:    1527656  HIT %:    66.7382  MISS %:    33.2618   MPKI: 7.63828
L2C DATA PREFETCH MPKI: 7.63828
L2C INSTRUCTION PREFETCH MPKI: 0
L2C WRITEBACK ACCESS:    1036997  HIT:    1035607  MISS:       1390  HIT %:     99.866  MISS %:   0.134041   MPKI: 0.00695
L2C LOAD TRANSLATION ACCESS:      42216  HIT:      28396  MISS:      13820  HIT %:    67.2636  MISS %:    32.7364   MPKI: 0.0691
L2C TRANSLATION FROM L1D PREFETCHER ACCESS:     708748  HIT:     705621  MISS:       3127  HIT %:    99.5588  MISS %:   0.441201   MPKI: 0.015635
L2C PREFETCH  REQUESTED:          0  ISSUED:          0  USEFUL:     312677  USELESS:    1218291
L2C USEFUL LOAD PREFETCHES:     312677 PREFETCH ISSUED TO LOWER LEVEL:    1535612  ACCURACY: 20.3617
L2C TIMELY PREFETCHES:     312677 LATE PREFETCHES: 7956 DROPPED PREFETCHES: 0
L2C PREFETCHES SAME FILL-ORIGIN LEVEL: 437842 DIFFERENT FILL-ORIGIN LEVEL: 0
L2C AVERAGE MISS LATENCY: 96.763 cycles
L2C RQ	ACCESS:    6332721	FORWARD:          0	MERGED:          0	TO_CACHE:    6332692
L2C WQ	ACCESS:    1036997	FORWARD:         34	MERGED:          0	TO_CACHE:    1036997
L2C PQ	ACCESS:    4734074	FORWARD:          0	MERGED:        339	TO_CACHE:    4733730

L2C Instructions Evicting Data 2
L2C Translations Evicting Data 16883
L2C Data Evicting Data 4006795
L2C Instructions Evicting Instructions 0
L2C Translations Evicting Instructions 0
L2C Data Evicting Instructions 2
L2C Instructions Evicting Translations 0
L2C Translations Evicting Translations 64
L2C Data Evicting Translations 16885
L2C Dense regions hint from L2: 0
PSCL5 TOTAL     ACCESS:     749504  HIT:     749504  MISS:          0  HIT %:        100  MISS %:          0   MPKI: 0
PSCL5 LOAD TRANSLATION ACCESS:      41924  HIT:      41924  MISS:          0  HIT %:        100  MISS %:          0   MPKI: 0
PSCL5 TRANSLATION FROM L1D PREFETCHER ACCESS:     707580  HIT:     707580  MISS:          0  HIT %:        100  MISS %:          0   MPKI: 0
PSCL5 PREFETCH  REQUESTED:          0  ISSUED:          0  USEFUL:          0  USELESS:          0
PSCL5 USEFUL LOAD PREFETCHES:          0 PREFETCH ISSUED TO LOWER LEVEL:          0  ACCURACY: -nan
PSCL5 TIMELY PREFETCHES:          0 LATE PREFETCHES: 0 DROPPED PREFETCHES: 0
PSCL5 PREFETCHES SAME FILL-ORIGIN LEVEL: 0 DIFFERENT FILL-ORIGIN LEVEL: 0

PSCL4 TOTAL     ACCESS:     749504  HIT:     749504  MISS:          0  HIT %:        100  MISS %:          0   MPKI: 0
PSCL4 LOAD TRANSLATION ACCESS:      41924  HIT:      41924  MISS:          0  HIT %:        100  MISS %:          0   MPKI: 0
PSCL4 TRANSLATION FROM L1D PREFETCHER ACCESS:     707580  HIT:     707580  MISS:          0  HIT %:        100  MISS %:          0   MPKI: 0
PSCL4 PREFETCH  REQUESTED:          0  ISSUED:          0  USEFUL:          0  USELESS:          0
PSCL4 USEFUL LOAD PREFETCHES:          0 PREFETCH ISSUED TO LOWER LEVEL:          0  ACCURACY: -nan
PSCL4 TIMELY PREFETCHES:          0 LATE PREFETCHES: 0 DROPPED PREFETCHES: 0
PSCL4 PREFETCHES SAME FILL-ORIGIN LEVEL: 0 DIFFERENT FILL-ORIGIN LEVEL: 0

PSCL3 TOTAL     ACCESS:     749504  HIT:     749504  MISS:          0  HIT %:        100  MISS %:          0   MPKI: 0
PSCL3 LOAD TRANSLATION ACCESS:      41924  HIT:      41924  MISS:          0  HIT %:        100  MISS %:          0   MPKI: 0
PSCL3 TRANSLATION FROM L1D PREFETCHER ACCESS:     707580  HIT:     707580  MISS:          0  HIT %:        100  MISS %:          0   MPKI: 0
PSCL3 PREFETCH  REQUESTED:          0  ISSUED:          0  USEFUL:          0  USELESS:          0
PSCL3 USEFUL LOAD PREFETCHES:          0 PREFETCH ISSUED TO LOWER LEVEL:          0  ACCURACY: -nan
PSCL3 TIMELY PREFETCHES:          0 LATE PREFETCHES: 0 DROPPED PREFETCHES: 0
PSCL3 PREFETCHES SAME FILL-ORIGIN LEVEL: 0 DIFFERENT FILL-ORIGIN LEVEL: 0

PSCL2 TOTAL     ACCESS:     746579  HIT:     746084  MISS:        495  HIT %:    99.9337  MISS %:  0.0663024   MPKI: 0.002475
PSCL2 LOAD TRANSLATION ACCESS:      41925  HIT:      41430  MISS:        495  HIT %:    98.8193  MISS %:    1.18068   MPKI: 0.002475
PSCL2 TRANSLATION FROM L1D PREFETCHER ACCESS:     704654  HIT:     704654  MISS:          0  HIT %:        100  MISS %:          0   MPKI: 0
PSCL2 PREFETCH  REQUESTED:          0  ISSUED:          0  USEFUL:          0  USELESS:          0
PSCL2 USEFUL LOAD PREFETCHES:          0 PREFETCH ISSUED TO LOWER LEVEL:          0  ACCURACY: -nan
PSCL2 TIMELY PREFETCHES:          0 LATE PREFETCHES: 0 DROPPED PREFETCHES: 0
PSCL2 PREFETCHES SAME FILL-ORIGIN LEVEL: 0 DIFFERENT FILL-ORIGIN LEVEL: 0

LLC TOTAL     ACCESS:    4204611  HIT:    2226069  MISS:    1978542  HIT %:    52.9435  MISS %:    47.0565   MPKI: 9.89271
LLC LOAD      ACCESS:    2411944  HIT:    1828440  MISS:     583504  HIT %:    75.8077  MISS %:    24.1923   MPKI: 2.91752
LLC RFO       ACCESS:      76122  HIT:      73671  MISS:       2451  HIT %:    96.7802  MISS %:    3.21983   MPKI: 0.012255
LLC PREFETCH  ACCESS:    1535610  HIT:     166984  MISS:    1368626  HIT %:    10.8741  MISS %:    89.1259   MPKI: 6.84313
LLC WRITEBACK ACCESS:     163988  HIT:     145070  MISS:      18918  HIT %:    88.4638  MISS %:    11.5362   MPKI: 0.09459
LLC LOAD TRANSLATION ACCESS:      13820  HIT:      11705  MISS:       2115  HIT %:    84.6961  MISS %:    15.3039   MPKI: 0.010575
LLC TRANSLATION FROM L1D PREFETCHER ACCESS:       3127  HIT:        199  MISS:       2928  HIT %:    6.36393  MISS %:    93.6361   MPKI: 0.01464
LLC PREFETCH  REQUESTED:          0  ISSUED:          0  USEFUL:     213554  USELESS:    1159932
LLC USEFUL LOAD PREFETCHES:     213554 PREFETCH ISSUED TO LOWER LEVEL:    1368626  ACCURACY: 15.6035
LLC TIMELY PREFETCHES:     213554 LATE PREFETCHES: 0 DROPPED PREFETCHES: 0
LLC PREFETCHES SAME FILL-ORIGIN LEVEL: 0 DIFFERENT FILL-ORIGIN LEVEL: 0
LLC AVERAGE MISS LATENCY: 136.198 cycles
LLC RQ	ACCESS:    2505019	FORWARD:          0	MERGED:          0	TO_CACHE:    2505013
LLC WQ	ACCESS:     163988	FORWARD:          8	MERGED:          0	TO_CACHE:     163988
LLC PQ	ACCESS:    1535612	FORWARD:          0	MERGED:          0	TO_CACHE:    1535610

LLC Dense regions hint to LLC: 0

RAW hits: 3092494
Loads Generated: 70285606
Loads sent to L1D: 67193111
Stores Generated: 23674352
Stores sent to L1D: 23674381
Major fault: 0 Minor fault: 30918
Allocated PAGES: 30918

DRAM Statistics
 CHANNEL 0
 RQ ROW_BUFFER_HIT:    1007691  ROW_BUFFER_MISS:     951928
 DBUS_CONGESTED:        444
 WQ ROW_BUFFER_HIT:       8179  ROW_BUFFER_MISS:      35967  FULL:          0

 AVG_CONGESTED_CYCLE: 4
 All warmup complete: 2
Channel 0 Bank busy for read cycles: 0
Channel 0 Bank busy for write cycles: 0
Channel 0
Rank 0
0banks busy for read cycles: 577969151
0banks busy for write cycles: 35904
1banks busy for read cycles: 50947258
1banks busy for write cycles: 6190589
2banks busy for read cycles: 23439552
2banks busy for write cycles: 818909
3banks busy for read cycles: 10147775
3banks busy for write cycles: 165117
4banks busy for read cycles: 4552680
4banks busy for write cycles: 46678
5banks busy for read cycles: 2546409
5banks busy for write cycles: 17111
6banks busy for read cycles: 1996358
6banks busy for write cycles: 7055
7banks busy for read cycles: 1268062
7banks busy for write cycles: 3674
8banks busy for read cycles: 1639955
8banks busy for write cycles: 3712

CPU 0 Branch Prediction Accuracy: 89.4896% MPKI: 17.4449 Average ROB Occupancy at Mispredict: 19.3377
Branch types
NOT_BRANCH: 150520485 75.2602%
BRANCH_DIRECT_JUMP: 5163667 2.58183%
BRANCH_INDIRECT: 0 0%
BRANCH_CONDITIONAL: 33195560 16.5978%
BRANCH_DIRECT_CALL: 5259752 2.62988%
BRANCH_INDIRECT_CALL: 300210 0.150105%
BRANCH_RETURN: 5559960 2.77998%
BRANCH_OTHER: 0 0%

DRAM PAGES: 1048576
Allocated PAGES: 30918
