 (TOTAL 523355 bits 511 Kbits) 
*** ChampSim Multicore Out-of-Order Simulator ***

Warmup Instructions: 50000000
Simulation Instructions: 200000000
Number of CPUs: 1
LLC sets: 2048
LLC ways: 16
Off-chip DRAM Size: 4096 MB Channels: 1 Width: 64-bit Data Rate: 6400 MT/s
argv[0]: ./ChampSim/Berti/bin/tagescl-no-vberti-no-no-no-no-no-lru-lru-lru-srrip-drrip-lru-lru-lru-1core-no
argv[1]: -warmup_instructions
argv[2]: 50000000
argv[3]: -simulation_instructions
argv[4]: 200000000
argv[5]: -traces
argv[6]: traces/spec2k17_ten/605.mcf_s-782B.champsimtrace.xz
CPU 0 runs traces/spec2k17_ten/605.mcf_s-782B.champsimtrace.xz
.xz
CPU 0 Tage branch predictor
BTB has LRU replacement policy
ITLB has LRU replacement policy
DTLB has LRU replacement policy
STLB has LRU replacement policy
L1I has LRU replacement policy
History Sets: 8
History Ways: 16
BERTI Size: 16
BERTI Stride Size: 16
L1D has LRU replacement policy
Initialize SRRIP state for L2C
Initialize DRRIP state for LLC
Heartbeat CPU 0 instructions: 10000001 cycles: 3758983 heartbeat IPC: 2.66029 cumulative IPC: 2.66029 (Simulation time: 0 hr 4 min 37 sec) 
Heartbeat CPU 0 instructions: 20000000 cycles: 7488324 heartbeat IPC: 2.68144 cumulative IPC: 2.67082 (Simulation time: 0 hr 7 min 14 sec) 
Heartbeat CPU 0 instructions: 30000000 cycles: 11272156 heartbeat IPC: 2.64282 cumulative IPC: 2.66143 (Simulation time: 0 hr 11 min 25 sec) 
Heartbeat CPU 0 instructions: 40000003 cycles: 15027398 heartbeat IPC: 2.66295 cumulative IPC: 2.6618 (Simulation time: 0 hr 24 min 6 sec) 
Heartbeat CPU 0 instructions: 50000000 cycles: 18820524 heartbeat IPC: 2.63635 cumulative IPC: 2.65667 (Simulation time: 0 hr 38 min 36 sec) 

Warmup complete CPU 0 instructions: 50000001 cycles: 18820525 (Simulation time: 0 hr 38 min 36 sec) 

Heartbeat CPU 0 instructions: 60000003 cycles: 58871180 heartbeat IPC: 0.249684 cumulative IPC: 0.249684 (Simulation time: 0 hr 55 min 0 sec) 
Heartbeat CPU 0 instructions: 70000002 cycles: 98095070 heartbeat IPC: 0.254947 cumulative IPC: 0.252288 (Simulation time: 1 hr 8 min 52 sec) 
Heartbeat CPU 0 instructions: 80000002 cycles: 137168755 heartbeat IPC: 0.255927 cumulative IPC: 0.253489 (Simulation time: 1 hr 24 min 28 sec) 
Heartbeat CPU 0 instructions: 90000000 cycles: 178344676 heartbeat IPC: 0.24286 cumulative IPC: 0.250746 (Simulation time: 1 hr 41 min 20 sec) 
Heartbeat CPU 0 instructions: 100000001 cycles: 223529941 heartbeat IPC: 0.221311 cumulative IPC: 0.244249 (Simulation time: 1 hr 57 min 1 sec) 
Heartbeat CPU 0 instructions: 110000000 cycles: 269845297 heartbeat IPC: 0.215911 cumulative IPC: 0.23902 (Simulation time: 2 hr 11 min 39 sec) 
Heartbeat CPU 0 instructions: 120000000 cycles: 312882557 heartbeat IPC: 0.232357 cumulative IPC: 0.238045 (Simulation time: 2 hr 28 min 15 sec) 
Heartbeat CPU 0 instructions: 130000003 cycles: 353018506 heartbeat IPC: 0.249153 cumulative IPC: 0.239379 (Simulation time: 2 hr 46 min 10 sec) 
Heartbeat CPU 0 instructions: 140000001 cycles: 392346655 heartbeat IPC: 0.254271 cumulative IPC: 0.240947 (Simulation time: 3 hr 3 min 20 sec) 
Heartbeat CPU 0 instructions: 150000000 cycles: 432782114 heartbeat IPC: 0.247308 cumulative IPC: 0.241568 (Simulation time: 3 hr 19 min 15 sec) 
Heartbeat CPU 0 instructions: 160000002 cycles: 473113518 heartbeat IPC: 0.247946 cumulative IPC: 0.242134 (Simulation time: 3 hr 36 min 9 sec) 
Heartbeat CPU 0 instructions: 170000001 cycles: 513635422 heartbeat IPC: 0.24678 cumulative IPC: 0.242515 (Simulation time: 3 hr 51 min 39 sec) 
Heartbeat CPU 0 instructions: 180000002 cycles: 554055618 heartbeat IPC: 0.247401 cumulative IPC: 0.242884 (Simulation time: 4 hr 4 min 48 sec) 
Heartbeat CPU 0 instructions: 190000001 cycles: 598623983 heartbeat IPC: 0.224374 cumulative IPC: 0.241461 (Simulation time: 4 hr 14 min 15 sec) 
Heartbeat CPU 0 instructions: 200000002 cycles: 644757032 heartbeat IPC: 0.216764 cumulative IPC: 0.239641 (Simulation time: 4 hr 25 min 6 sec) 
Heartbeat CPU 0 instructions: 210000003 cycles: 688539595 heartbeat IPC: 0.228401 cumulative IPC: 0.238906 (Simulation time: 4 hr 33 min 32 sec) 
Heartbeat CPU 0 instructions: 220000000 cycles: 729506105 heartbeat IPC: 0.244102 cumulative IPC: 0.239206 (Simulation time: 4 hr 39 min 49 sec) 
Heartbeat CPU 0 instructions: 230000001 cycles: 770127419 heartbeat IPC: 0.246176 cumulative IPC: 0.239583 (Simulation time: 4 hr 44 min 43 sec) 
Heartbeat CPU 0 instructions: 240000000 cycles: 810984006 heartbeat IPC: 0.244759 cumulative IPC: 0.239849 (Simulation time: 4 hr 48 min 26 sec) 
Heartbeat CPU 0 instructions: 250000003 cycles: 850984624 heartbeat IPC: 0.249996 cumulative IPC: 0.240337 (Simulation time: 4 hr 51 min 2 sec) 
Finished CPU 0 instructions: 200000002 cycles: 832164099 cumulative IPC: 0.240337 (Simulation time: 4 hr 51 min 2 sec) 

ChampSim completed all CPUs

Region of Interest Statistics

CPU 0 cumulative IPC: 0.240337 instructions: 200000002 cycles: 832164099
ITLB TOTAL     ACCESS:   32840311  HIT:   32840311  MISS:          0  HIT %:        100  MISS %:          0   MPKI: 0
ITLB LOAD TRANSLATION ACCESS:   32840311  HIT:   32840311  MISS:          0  HIT %:        100  MISS %:          0   MPKI: 0
ITLB PREFETCH  REQUESTED:          0  ISSUED:          0  USEFUL:          0  USELESS:          0
ITLB USEFUL LOAD PREFETCHES:          0 PREFETCH ISSUED TO LOWER LEVEL:          0  ACCURACY: -nan
ITLB TIMELY PREFETCHES:          0 LATE PREFETCHES: 0 DROPPED PREFETCHES: 0
ITLB PREFETCHES SAME FILL-ORIGIN LEVEL: 0 DIFFERENT FILL-ORIGIN LEVEL: 0
ITLB AVERAGE MISS LATENCY: -nan cycles
ITLB RQ	ACCESS:   33318768	FORWARD:          0	MERGED:     478458	TO_CACHE:   32840310

DTLB TOTAL     ACCESS:   41347861  HIT:   23724846  MISS:   17623015  HIT %:    57.3787  MISS %:    42.6213   MPKI: 88.1151
DTLB LOAD TRANSLATION ACCESS:   41347861  HIT:   23724846  MISS:   17623015  HIT %:    57.3787  MISS %:    42.6213   MPKI: 88.1151
DTLB PREFETCH  REQUESTED:          0  ISSUED:          0  USEFUL:          0  USELESS:          0
DTLB USEFUL LOAD PREFETCHES:          0 PREFETCH ISSUED TO LOWER LEVEL:          0  ACCURACY: -nan
DTLB TIMELY PREFETCHES:          0 LATE PREFETCHES: 0 DROPPED PREFETCHES: 0
DTLB PREFETCHES SAME FILL-ORIGIN LEVEL: 0 DIFFERENT FILL-ORIGIN LEVEL: 0
DTLB AVERAGE MISS LATENCY: 11.1977 cycles
DTLB RQ	ACCESS:   45594668	FORWARD:          0	MERGED:    3964454	TO_CACHE:   41630214

STLB TOTAL     ACCESS:   25736118  HIT:   25497291  MISS:     238827  HIT %:     99.072  MISS %:   0.927984   MPKI: 1.19413
STLB LOAD TRANSLATION ACCESS:   17623015  HIT:   17385552  MISS:     237463  HIT %:    98.6525  MISS %:    1.34746   MPKI: 1.18731
STLB TRANSLATION FROM L1D PREFETCHER ACCESS:    8113103  HIT:    8111739  MISS:       1364  HIT %:    99.9832  MISS %:  0.0168123   MPKI: 0.00682
STLB PREFETCH  REQUESTED:          0  ISSUED:          0  USEFUL:       1148  USELESS:        216
STLB USEFUL LOAD PREFETCHES:       1148 PREFETCH ISSUED TO LOWER LEVEL:          0  ACCURACY: inf
STLB TIMELY PREFETCHES:       1148 LATE PREFETCHES: 69381 DROPPED PREFETCHES: 3984695
STLB PREFETCHES SAME FILL-ORIGIN LEVEL: 0 DIFFERENT FILL-ORIGIN LEVEL: 0
STLB AVERAGE MISS LATENCY: 121.285 cycles
STLB RQ	ACCESS:   88317704	FORWARD:          0	MERGED:   58124152	TO_CACHE:   30193552

STLB Hit, L1D data hit: 0
STLB Hit, L2C data hit: 0
STLB Hit, LLC data hit: 0
STLB Hit, LLC data miss: 0
STLB STLB hints to L2: 0
L1D TOTAL     ACCESS:   85773506  HIT:   54812612  MISS:   30960894  HIT %:    63.9039  MISS %:    36.0961   MPKI: 154.804
L1D LOAD      ACCESS:   41950464  HIT:   19977160  MISS:   21973304  HIT %:    47.6208  MISS %:    52.3792   MPKI: 109.867
L1D RFO       ACCESS:    3347147  HIT:    3286628  MISS:      60519  HIT %:    98.1919  MISS %:    1.80808   MPKI: 0.302595
L1D PREFETCH  ACCESS:   40475895  HIT:   31548824  MISS:    8927071  HIT %:    77.9447  MISS %:    22.0553   MPKI: 44.6354
L1D PREFETCH  REQUESTED:  172581456  ISSUED:  157477405  USEFUL:    8923040  USELESS:       4022
L1D USEFUL LOAD PREFETCHES:    8923040 PREFETCH ISSUED TO LOWER LEVEL:   18433217  ACCURACY: 48.4074
L1D TIMELY PREFETCHES:    8923040 LATE PREFETCHES: 634409 DROPPED PREFETCHES: 12624170
L1D PREFETCHES SAME FILL-ORIGIN LEVEL: 9561497 DIFFERENT FILL-ORIGIN LEVEL: 8871720
L1D AVERAGE MISS LATENCY: 76.467 cycles
L1D RQ	ACCESS:   71261842	FORWARD:          0	MERGED:   28574277	TO_CACHE:   42139316
L1D WQ	ACCESS:    3578449	FORWARD:     548287	MERGED:     123097	TO_CACHE:    3455352
L1D PQ	ACCESS:   86782716	FORWARD:          0	MERGED:   16087989	TO_CACHE:   70694689

L1D UNIQUE REGIONS ACCESSED: 0
L1D REGIONS CONFLICTS: 0
L1D Cross Page Prefetch Requests: 21385003
L1D Same Page Prefetch Requests: 87267015
L1D ROI Sum of L1D PQ occupancy: 1605355689
L1D PREFETCHES PUSHED FROM L2C: 0
L1I TOTAL     ACCESS:   33318766  HIT:   33318766  MISS:          0  HIT %:        100  MISS %:          0   MPKI: 0
L1I LOAD      ACCESS:   33318766  HIT:   33318766  MISS:          0  HIT %:        100  MISS %:          0   MPKI: 0
L1I PREFETCH  REQUESTED:          0  ISSUED:          0  USEFUL:          0  USELESS:          0
L1I USEFUL LOAD PREFETCHES:          0 PREFETCH ISSUED TO LOWER LEVEL:          0  ACCURACY: -nan
L1I TIMELY PREFETCHES:          0 LATE PREFETCHES: 0 DROPPED PREFETCHES: 0
L1I PREFETCHES SAME FILL-ORIGIN LEVEL: 0 DIFFERENT FILL-ORIGIN LEVEL: 0
L1I AVERAGE MISS LATENCY: -nan cycles
L1I RQ	ACCESS:   40754408	FORWARD:          0	MERGED:    7435640	TO_CACHE:   33318768

BTB TOTAL     ACCESS:   60210742  HIT:   60015897  MISS:     194845  HIT %:    99.6764  MISS %:   0.323605   MPKI: 0.974225
BTB BRANCH_DIRECT_JUMP	ACCESS:    7722186  HIT:    7722149  MISS:         37
BTB BRANCH_INDIRECT	ACCESS:          0  HIT:          0  MISS:          0
BTB BRANCH_CONDITIONAL	ACCESS:   51083201  HIT:   51083119  MISS:         82
BTB BRANCH_DIRECT_CALL	ACCESS:     648844  HIT:     648826  MISS:         18
BTB BRANCH_INDIRECT_CALL	ACCESS:      53834  HIT:      53826  MISS:          8
BTB BRANCH_RETURN	ACCESS:     702677  HIT:     507977  MISS:     194700
BTB BRANCH_OTHER ACCESS:          0  HIT:          0  MISS:          0

L2C TOTAL     ACCESS:   41243621  HIT:   15339457  MISS:   25904164  HIT %:    37.1923  MISS %:    62.8077   MPKI: 129.521
L2C LOAD      ACCESS:   21338881  HIT:    6601377  MISS:   14737504  HIT %:    30.9359  MISS %:    69.0641   MPKI: 73.6875
L2C DATA LOAD MPKI: 73.6875
L2C INSTRUCTION LOAD MPKI: 0
L2C RFO       ACCESS:      60519  HIT:      38951  MISS:      21568  HIT %:    64.3616  MISS %:    35.6384   MPKI: 0.10784
L2C PREFETCH  ACCESS:   15039902  HIT:    3978128  MISS:   11061774  HIT %:    26.4505  MISS %:    73.5495   MPKI: 55.3089
L2C DATA PREFETCH MPKI: 55.3089
L2C INSTRUCTION PREFETCH MPKI: 0
L2C WRITEBACK ACCESS:     503788  HIT:     498191  MISS:       5597  HIT %:     98.889  MISS %:    1.11098   MPKI: 0.027985
L2C LOAD TRANSLATION ACCESS:     240425  HIT:     185899  MISS:      54526  HIT %:     77.321  MISS %:     22.679   MPKI: 0.27263
L2C TRANSLATION FROM L1D PREFETCHER ACCESS:    4060106  HIT:    4036911  MISS:      23195  HIT %:    99.4287  MISS %:   0.571291   MPKI: 0.115975
L2C PREFETCH  REQUESTED:          0  ISSUED:          0  USEFUL:     938941  USELESS:   10145979
L2C USEFUL LOAD PREFETCHES:     938941 PREFETCH ISSUED TO LOWER LEVEL:   11278289  ACCURACY: 8.32521
L2C TIMELY PREFETCHES:     938941 LATE PREFETCHES: 216515 DROPPED PREFETCHES: 0
L2C PREFETCHES SAME FILL-ORIGIN LEVEL: 4931629 DIFFERENT FILL-ORIGIN LEVEL: 0
L2C AVERAGE MISS LATENCY: 95.3033 cycles
L2C RQ	ACCESS:   25699943	FORWARD:          0	MERGED:          0	TO_CACHE:   25699931
L2C WQ	ACCESS:     503788	FORWARD:         12	MERGED:          0	TO_CACHE:     503788
L2C PQ	ACCESS:   18433027	FORWARD:          0	MERGED:       8877	TO_CACHE:   18424150

L2C Instructions Evicting Data 0
L2C Translations Evicting Data 77586
L2C Data Evicting Data 25743283
L2C Instructions Evicting Instructions 0
L2C Translations Evicting Instructions 0
L2C Data Evicting Instructions 0
L2C Instructions Evicting Translations 0
L2C Translations Evicting Translations 135
L2C Data Evicting Translations 77563
L2C Dense regions hint from L2: 0
PSCL5 TOTAL     ACCESS:    4292770  HIT:    4292770  MISS:          0  HIT %:        100  MISS %:          0   MPKI: 0
PSCL5 LOAD TRANSLATION ACCESS:     237330  HIT:     237330  MISS:          0  HIT %:        100  MISS %:          0   MPKI: 0
PSCL5 TRANSLATION FROM L1D PREFETCHER ACCESS:    4055440  HIT:    4055440  MISS:          0  HIT %:        100  MISS %:          0   MPKI: 0
PSCL5 PREFETCH  REQUESTED:          0  ISSUED:          0  USEFUL:          0  USELESS:          0
PSCL5 USEFUL LOAD PREFETCHES:          0 PREFETCH ISSUED TO LOWER LEVEL:          0  ACCURACY: -nan
PSCL5 TIMELY PREFETCHES:          0 LATE PREFETCHES: 0 DROPPED PREFETCHES: 0
PSCL5 PREFETCHES SAME FILL-ORIGIN LEVEL: 0 DIFFERENT FILL-ORIGIN LEVEL: 0

PSCL4 TOTAL     ACCESS:    4292770  HIT:    4292770  MISS:          0  HIT %:        100  MISS %:          0   MPKI: 0
PSCL4 LOAD TRANSLATION ACCESS:     237330  HIT:     237330  MISS:          0  HIT %:        100  MISS %:          0   MPKI: 0
PSCL4 TRANSLATION FROM L1D PREFETCHER ACCESS:    4055440  HIT:    4055440  MISS:          0  HIT %:        100  MISS %:          0   MPKI: 0
PSCL4 PREFETCH  REQUESTED:          0  ISSUED:          0  USEFUL:          0  USELESS:          0
PSCL4 USEFUL LOAD PREFETCHES:          0 PREFETCH ISSUED TO LOWER LEVEL:          0  ACCURACY: -nan
PSCL4 TIMELY PREFETCHES:          0 LATE PREFETCHES: 0 DROPPED PREFETCHES: 0
PSCL4 PREFETCHES SAME FILL-ORIGIN LEVEL: 0 DIFFERENT FILL-ORIGIN LEVEL: 0

PSCL3 TOTAL     ACCESS:    4292770  HIT:    4292770  MISS:          0  HIT %:        100  MISS %:          0   MPKI: 0
PSCL3 LOAD TRANSLATION ACCESS:     237330  HIT:     237330  MISS:          0  HIT %:        100  MISS %:          0   MPKI: 0
PSCL3 TRANSLATION FROM L1D PREFETCHER ACCESS:    4055440  HIT:    4055440  MISS:          0  HIT %:        100  MISS %:          0   MPKI: 0
PSCL3 PREFETCH  REQUESTED:          0  ISSUED:          0  USEFUL:          0  USELESS:          0
PSCL3 USEFUL LOAD PREFETCHES:          0 PREFETCH ISSUED TO LOWER LEVEL:          0  ACCURACY: -nan
PSCL3 TIMELY PREFETCHES:          0 LATE PREFETCHES: 0 DROPPED PREFETCHES: 0
PSCL3 PREFETCHES SAME FILL-ORIGIN LEVEL: 0 DIFFERENT FILL-ORIGIN LEVEL: 0

PSCL2 TOTAL     ACCESS:    4283596  HIT:    4280044  MISS:       3552  HIT %:    99.9171  MISS %:   0.082921   MPKI: 0.01776
PSCL2 LOAD TRANSLATION ACCESS:     237344  HIT:     233792  MISS:       3552  HIT %:    98.5034  MISS %:    1.49656   MPKI: 0.01776
PSCL2 TRANSLATION FROM L1D PREFETCHER ACCESS:    4046252  HIT:    4046252  MISS:          0  HIT %:        100  MISS %:          0   MPKI: 0
PSCL2 PREFETCH  REQUESTED:          0  ISSUED:          0  USEFUL:          0  USELESS:          0
PSCL2 USEFUL LOAD PREFETCHES:          0 PREFETCH ISSUED TO LOWER LEVEL:          0  ACCURACY: -nan
PSCL2 TIMELY PREFETCHES:          0 LATE PREFETCHES: 0 DROPPED PREFETCHES: 0
PSCL2 PREFETCHES SAME FILL-ORIGIN LEVEL: 0 DIFFERENT FILL-ORIGIN LEVEL: 0

LLC TOTAL     ACCESS:   26175406  HIT:   12470631  MISS:   13704775  HIT %:    47.6426  MISS %:    52.3574   MPKI: 68.5239
LLC LOAD      ACCESS:   14520984  HIT:   11610034  MISS:    2910950  HIT %:    79.9535  MISS %:    20.0465   MPKI: 14.5547
LLC RFO       ACCESS:      21568  HIT:      17511  MISS:       4057  HIT %:    81.1897  MISS %:    18.8103   MPKI: 0.020285
LLC PREFETCH  ACCESS:   11278289  HIT:     605919  MISS:   10672370  HIT %:    5.37244  MISS %:    94.6276   MPKI: 53.3618
LLC WRITEBACK ACCESS:     276844  HIT:     205757  MISS:      71087  HIT %:    74.3224  MISS %:    25.6776   MPKI: 0.355435
LLC LOAD TRANSLATION ACCESS:      54526  HIT:      30805  MISS:      23721  HIT %:     56.496  MISS %:     43.504   MPKI: 0.118605
LLC TRANSLATION FROM L1D PREFETCHER ACCESS:      23195  HIT:        605  MISS:      22590  HIT %:    2.60832  MISS %:    97.3917   MPKI: 0.11295
LLC PREFETCH  REQUESTED:          0  ISSUED:          0  USEFUL:       1905  USELESS:   10693641
LLC USEFUL LOAD PREFETCHES:       1905 PREFETCH ISSUED TO LOWER LEVEL:   10672370  ACCURACY: 0.0178498
LLC TIMELY PREFETCHES:       1905 LATE PREFETCHES: 0 DROPPED PREFETCHES: 0
LLC PREFETCHES SAME FILL-ORIGIN LEVEL: 0 DIFFERENT FILL-ORIGIN LEVEL: 0
LLC AVERAGE MISS LATENCY: 123.607 cycles
LLC RQ	ACCESS:   14620278	FORWARD:          0	MERGED:          0	TO_CACHE:   14620273
LLC WQ	ACCESS:     276844	FORWARD:          5	MERGED:          0	TO_CACHE:     276844
LLC PQ	ACCESS:   11278289	FORWARD:          0	MERGED:          0	TO_CACHE:   11278289

LLC Dense regions hint to LLC: 0

RAW hits: 490657
Loads Generated: 71752500
Loads sent to L1D: 71261842
Stores Generated: 3578449
Stores sent to L1D: 3578449
Major fault: 0 Minor fault: 219750
Allocated PAGES: 219750

DRAM Statistics
 CHANNEL 0
 RQ ROW_BUFFER_HIT:    9257750  ROW_BUFFER_MISS:    4375917
 DBUS_CONGESTED:       3193
 WQ ROW_BUFFER_HIT:      36170  ROW_BUFFER_MISS:      58377  FULL:          0

 AVG_CONGESTED_CYCLE: 4
 All warmup complete: 2
Channel 0 Bank busy for read cycles: 0
Channel 0 Bank busy for write cycles: 0
Channel 0
Rank 0
0banks busy for read cycles: 327852818
0banks busy for write cycles: 71258
1banks busy for read cycles: 222631151
1banks busy for write cycles: 16401670
2banks busy for read cycles: 113525594
2banks busy for write cycles: 1978967
3banks busy for read cycles: 58424480
3banks busy for write cycles: 423676
4banks busy for read cycles: 31506669
4banks busy for write cycles: 159636
5banks busy for read cycles: 21002340
5banks busy for write cycles: 94715
6banks busy for read cycles: 14775688
6banks busy for write cycles: 74505
7banks busy for read cycles: 10330738
7banks busy for write cycles: 50413
8banks busy for read cycles: 12803968
8banks busy for write cycles: 55814

CPU 0 Branch Prediction Accuracy: 96.9354% MPKI: 7.97618 Average ROB Occupancy at Mispredict: 55.8299
Branch types
NOT_BRANCH: 138818908 69.4095%
BRANCH_DIRECT_JUMP: 7722186 3.86109%
BRANCH_INDIRECT: 0 0%
BRANCH_CONDITIONAL: 52053291 26.0266%
BRANCH_DIRECT_CALL: 648844 0.324422%
BRANCH_INDIRECT_CALL: 53834 0.026917%
BRANCH_RETURN: 702677 0.351338%
BRANCH_OTHER: 0 0%

DRAM PAGES: 1048576
Allocated PAGES: 219750
