 (TOTAL 67349)
 
*** ChampSim Multicore Out-of-Order Simulator ***

Warmup Instructions: 50000000
Simulation Instructions: 200000000
Number of CPUs: 1
LLC sets: 2048
LLC ways: 16
Off-chip DRAM Size: 4096 MB Channels: 1 Width: 64-bit Data Rate: 6400 MT/s
argv[0]: ./ChampSim/Berti/bin/tagescl8kb-no-vberti-no-no-no-no-no-lru-lru-lru-srrip-drrip-lru-lru-lru-1core-no
argv[1]: -warmup_instructions
argv[2]: 50000000
argv[3]: -simulation_instructions
argv[4]: 200000000
argv[5]: -traces
argv[6]: traces/spec2k17_ten/607.cactuBSSN_s-2421B.champsimtrace.xz
CPU 0 runs traces/spec2k17_ten/607.cactuBSSN_s-2421B.champsimtrace.xz
.xz
CPU 0 Tage branch predictor
BTB has LRU replacement policy
ITLB has LRU replacement policy
DTLB has LRU replacement policy
STLB has LRU replacement policy
L1I has LRU replacement policy
History Sets: 8
History Ways: 16
BERTI Size: 16
BERTI Stride Size: 16
L1D has LRU replacement policy
Initialize SRRIP state for L2C
Initialize DRRIP state for LLC
Heartbeat CPU 0 instructions: 10000002 cycles: 3587638 heartbeat IPC: 2.78735 cumulative IPC: 2.78735 (Simulation time: 0 hr 7 min 7 sec) 
Heartbeat CPU 0 instructions: 20000001 cycles: 7171619 heartbeat IPC: 2.79019 cumulative IPC: 2.78877 (Simulation time: 0 hr 16 min 36 sec) 
Heartbeat CPU 0 instructions: 30000002 cycles: 10758953 heartbeat IPC: 2.78759 cumulative IPC: 2.78838 (Simulation time: 0 hr 24 min 38 sec) 
Heartbeat CPU 0 instructions: 40000003 cycles: 14345626 heartbeat IPC: 2.7881 cumulative IPC: 2.78831 (Simulation time: 0 hr 31 min 9 sec) 
Heartbeat CPU 0 instructions: 50000003 cycles: 17931158 heartbeat IPC: 2.78899 cumulative IPC: 2.78844 (Simulation time: 0 hr 36 min 37 sec) 

Warmup complete CPU 0 instructions: 50000003 cycles: 17931158 (Simulation time: 0 hr 36 min 37 sec) 

Heartbeat CPU 0 instructions: 60000003 cycles: 30720531 heartbeat IPC: 0.781899 cumulative IPC: 0.781899 (Simulation time: 0 hr 42 min 23 sec) 
Heartbeat CPU 0 instructions: 70000000 cycles: 43244653 heartbeat IPC: 0.798459 cumulative IPC: 0.790092 (Simulation time: 0 hr 50 min 36 sec) 
Heartbeat CPU 0 instructions: 80000001 cycles: 55803125 heartbeat IPC: 0.796275 cumulative IPC: 0.792143 (Simulation time: 0 hr 58 min 35 sec) 
Heartbeat CPU 0 instructions: 90000000 cycles: 68351465 heartbeat IPC: 0.796918 cumulative IPC: 0.793331 (Simulation time: 1 hr 6 min 39 sec) 
Heartbeat CPU 0 instructions: 100000000 cycles: 80872144 heartbeat IPC: 0.798679 cumulative IPC: 0.794395 (Simulation time: 1 hr 15 min 45 sec) 
Heartbeat CPU 0 instructions: 110000000 cycles: 93386169 heartbeat IPC: 0.799103 cumulative IPC: 0.795176 (Simulation time: 1 hr 19 min 31 sec) 
Heartbeat CPU 0 instructions: 120000000 cycles: 105874037 heartbeat IPC: 0.800777 cumulative IPC: 0.795971 (Simulation time: 1 hr 26 min 39 sec) 
Heartbeat CPU 0 instructions: 130000002 cycles: 118431333 heartbeat IPC: 0.79635 cumulative IPC: 0.796018 (Simulation time: 1 hr 32 min 29 sec) 
Heartbeat CPU 0 instructions: 140000002 cycles: 130996303 heartbeat IPC: 0.795863 cumulative IPC: 0.796001 (Simulation time: 1 hr 37 min 10 sec) 
Heartbeat CPU 0 instructions: 150000001 cycles: 143620331 heartbeat IPC: 0.79214 cumulative IPC: 0.795613 (Simulation time: 1 hr 42 min 34 sec) 
Heartbeat CPU 0 instructions: 160000002 cycles: 156115645 heartbeat IPC: 0.8003 cumulative IPC: 0.796037 (Simulation time: 1 hr 47 min 48 sec) 
Heartbeat CPU 0 instructions: 170000002 cycles: 168645851 heartbeat IPC: 0.798072 cumulative IPC: 0.796206 (Simulation time: 1 hr 53 min 27 sec) 
Heartbeat CPU 0 instructions: 180000001 cycles: 181117591 heartbeat IPC: 0.801813 cumulative IPC: 0.796635 (Simulation time: 1 hr 57 min 59 sec) 
Heartbeat CPU 0 instructions: 190000000 cycles: 193639397 heartbeat IPC: 0.798607 cumulative IPC: 0.796775 (Simulation time: 2 hr 4 min 56 sec) 
Heartbeat CPU 0 instructions: 200000000 cycles: 206106643 heartbeat IPC: 0.802102 cumulative IPC: 0.797128 (Simulation time: 2 hr 10 min 25 sec) 
Heartbeat CPU 0 instructions: 210000003 cycles: 218565029 heartbeat IPC: 0.802672 cumulative IPC: 0.797473 (Simulation time: 2 hr 17 min 52 sec) 
Heartbeat CPU 0 instructions: 220000000 cycles: 231117328 heartbeat IPC: 0.796667 cumulative IPC: 0.797425 (Simulation time: 2 hr 25 min 34 sec) 
Heartbeat CPU 0 instructions: 230000003 cycles: 243593055 heartbeat IPC: 0.801557 cumulative IPC: 0.797653 (Simulation time: 2 hr 33 min 41 sec) 
Heartbeat CPU 0 instructions: 240000000 cycles: 256195540 heartbeat IPC: 0.793494 cumulative IPC: 0.797433 (Simulation time: 2 hr 40 min 35 sec) 
Heartbeat CPU 0 instructions: 250000002 cycles: 268677566 heartbeat IPC: 0.801152 cumulative IPC: 0.797619 (Simulation time: 2 hr 47 min 1 sec) 
Finished CPU 0 instructions: 200000003 cycles: 250746409 cumulative IPC: 0.797619 (Simulation time: 2 hr 47 min 1 sec) 

ChampSim completed all CPUs

Region of Interest Statistics

CPU 0 cumulative IPC: 0.797619 instructions: 200000003 cycles: 250746409
ITLB TOTAL     ACCESS:   26749734  HIT:   26749680  MISS:         54  HIT %:    99.9998  MISS %: 0.000201871   MPKI: 0.00027
ITLB LOAD TRANSLATION ACCESS:   26749734  HIT:   26749680  MISS:         54  HIT %:    99.9998  MISS %: 0.000201871   MPKI: 0.00027
ITLB PREFETCH  REQUESTED:          0  ISSUED:          0  USEFUL:          0  USELESS:          0
ITLB USEFUL LOAD PREFETCHES:          0 PREFETCH ISSUED TO LOWER LEVEL:          0  ACCURACY: -nan
ITLB TIMELY PREFETCHES:          0 LATE PREFETCHES: 0 DROPPED PREFETCHES: 0
ITLB PREFETCHES SAME FILL-ORIGIN LEVEL: 0 DIFFERENT FILL-ORIGIN LEVEL: 0
ITLB AVERAGE MISS LATENCY: 339.167 cycles
ITLB RQ	ACCESS:   35011695	FORWARD:          0	MERGED:    8261952	TO_CACHE:   26749743

DTLB TOTAL     ACCESS:   41818274  HIT:   26811902  MISS:   15006372  HIT %:    64.1153  MISS %:    35.8847   MPKI: 75.0319
DTLB LOAD TRANSLATION ACCESS:   41818274  HIT:   26811902  MISS:   15006372  HIT %:    64.1153  MISS %:    35.8847   MPKI: 75.0319
DTLB PREFETCH  REQUESTED:          0  ISSUED:          0  USEFUL:          0  USELESS:          0
DTLB USEFUL LOAD PREFETCHES:          0 PREFETCH ISSUED TO LOWER LEVEL:          0  ACCURACY: -nan
DTLB TIMELY PREFETCHES:          0 LATE PREFETCHES: 0 DROPPED PREFETCHES: 0
DTLB PREFETCHES SAME FILL-ORIGIN LEVEL: 0 DIFFERENT FILL-ORIGIN LEVEL: 0
DTLB AVERAGE MISS LATENCY: 9.94918 cycles
DTLB RQ	ACCESS:   58238799	FORWARD:          0	MERGED:   15362613	TO_CACHE:   42876186

STLB TOTAL     ACCESS:   15037432  HIT:   15012883  MISS:      24549  HIT %:    99.8367  MISS %:   0.163253   MPKI: 0.122745
STLB LOAD TRANSLATION ACCESS:   15006427  HIT:   14981878  MISS:      24549  HIT %:    99.8364  MISS %:    0.16359   MPKI: 0.122745
STLB TRANSLATION FROM L1D PREFETCHER ACCESS:      31005  HIT:      31005  MISS:          0  HIT %:        100  MISS %:          0   MPKI: 0
STLB PREFETCH  REQUESTED:          0  ISSUED:          0  USEFUL:          0  USELESS:          0
STLB USEFUL LOAD PREFETCHES:          0 PREFETCH ISSUED TO LOWER LEVEL:          0  ACCURACY: -nan
STLB TIMELY PREFETCHES:          0 LATE PREFETCHES: 0 DROPPED PREFETCHES: 1231
STLB PREFETCHES SAME FILL-ORIGIN LEVEL: 0 DIFFERENT FILL-ORIGIN LEVEL: 0
STLB AVERAGE MISS LATENCY: 356.813 cycles
STLB RQ	ACCESS:   15045122	FORWARD:          0	MERGED:       6457	TO_CACHE:   15038665

STLB Hit, L1D data hit: 0
STLB Hit, L2C data hit: 0
STLB Hit, LLC data hit: 0
STLB Hit, LLC data miss: 0
STLB STLB hints to L2: 0
L1D TOTAL     ACCESS:   57607525  HIT:   34356383  MISS:   23251142  HIT %:    59.6387  MISS %:    40.3613   MPKI: 116.256
L1D LOAD      ACCESS:   34915554  HIT:   13278100  MISS:   21637454  HIT %:    38.0292  MISS %:    61.9708   MPKI: 108.187
L1D RFO       ACCESS:   22658115  HIT:   21049957  MISS:    1608158  HIT %:    92.9025  MISS %:    7.09749   MPKI: 8.04079
L1D PREFETCH  ACCESS:      33856  HIT:      28326  MISS:       5530  HIT %:    83.6661  MISS %:    16.3339   MPKI: 0.02765
L1D PREFETCH  REQUESTED:      77386  ISSUED:      77386  USEFUL:       1591  USELESS:       3940
L1D USEFUL LOAD PREFETCHES:       1591 PREFETCH ISSUED TO LOWER LEVEL:       8169  ACCURACY: 19.4761
L1D TIMELY PREFETCHES:       1591 LATE PREFETCHES: 893 DROPPED PREFETCHES: 1424
L1D PREFETCHES SAME FILL-ORIGIN LEVEL: 6423 DIFFERENT FILL-ORIGIN LEVEL: 1746
L1D AVERAGE MISS LATENCY: 37.2051 cycles
L1D RQ	ACCESS:   57207302	FORWARD:          0	MERGED:   21736846	TO_CACHE:   35455015
L1D WQ	ACCESS:   22784837	FORWARD:      15441	MERGED:       1053	TO_CACHE:   22783784
L1D PQ	ACCESS:      38693	FORWARD:          0	MERGED:          0	TO_CACHE:      38693

L1D UNIQUE REGIONS ACCESSED: 0
L1D REGIONS CONFLICTS: 0
L1D Cross Page Prefetch Requests: 143681
L1D Same Page Prefetch Requests: 18708
L1D ROI Sum of L1D PQ occupancy: 568119
L1D PREFETCHES PUSHED FROM L2C: 0
L1I TOTAL     ACCESS:   34986569  HIT:   34936912  MISS:      49657  HIT %:    99.8581  MISS %:   0.141932   MPKI: 0.248285
L1I LOAD      ACCESS:   34986569  HIT:   34936912  MISS:      49657  HIT %:    99.8581  MISS %:   0.141932   MPKI: 0.248285
L1I PREFETCH  REQUESTED:          0  ISSUED:          0  USEFUL:          0  USELESS:          0
L1I USEFUL LOAD PREFETCHES:          0 PREFETCH ISSUED TO LOWER LEVEL:          0  ACCURACY: -nan
L1I TIMELY PREFETCHES:          0 LATE PREFETCHES: 0 DROPPED PREFETCHES: 0
L1I PREFETCHES SAME FILL-ORIGIN LEVEL: 0 DIFFERENT FILL-ORIGIN LEVEL: 0
L1I AVERAGE MISS LATENCY: 17.1115 cycles
L1I RQ	ACCESS:   52035731	FORWARD:          0	MERGED:   17024036	TO_CACHE:   35011695

BTB TOTAL     ACCESS:     207305  HIT:     204093  MISS:       3212  HIT %:    98.4506  MISS %:    1.54941   MPKI: 0.01606
BTB BRANCH_DIRECT_JUMP	ACCESS:      61458  HIT:      61423  MISS:         35
BTB BRANCH_INDIRECT	ACCESS:      58898  HIT:      58820  MISS:         78
BTB BRANCH_CONDITIONAL	ACCESS:      74915  HIT:      74516  MISS:        399
BTB BRANCH_DIRECT_CALL	ACCESS:       6013  HIT:       5388  MISS:        625
BTB BRANCH_INDIRECT_CALL	ACCESS:          3  HIT:          0  MISS:          3
BTB BRANCH_RETURN	ACCESS:       6018  HIT:       3946  MISS:       2072
BTB BRANCH_OTHER ACCESS:          0  HIT:          0  MISS:          0

L2C TOTAL     ACCESS:   24718588  HIT:   22489738  MISS:    2228850  HIT %:    90.9831  MISS %:     9.0169   MPKI: 11.1442
L2C LOAD      ACCESS:   21269615  HIT:   19097175  MISS:    2172440  HIT %:    89.7862  MISS %:    10.2138   MPKI: 10.8622
L2C DATA LOAD MPKI: 10.858
L2C INSTRUCTION LOAD MPKI: 0.004235
L2C RFO       ACCESS:    1605529  HIT:    1583679  MISS:      21850  HIT %:    98.6391  MISS %:    1.36092   MPKI: 0.10925
L2C PREFETCH  ACCESS:       8152  HIT:       7869  MISS:        283  HIT %:    96.5285  MISS %:    3.47154   MPKI: 0.001415
L2C DATA PREFETCH MPKI: 0.001415
L2C INSTRUCTION PREFETCH MPKI: 0
L2C WRITEBACK ACCESS:    1793781  HIT:    1793681  MISS:        100  HIT %:    99.9944  MISS %: 0.00557482   MPKI: 0.0005
L2C LOAD TRANSLATION ACCESS:      39283  HIT:       5114  MISS:      34169  HIT %:    13.0184  MISS %:    86.9816   MPKI: 0.170845
L2C TRANSLATION FROM L1D PREFETCHER ACCESS:       2228  HIT:       2220  MISS:          8  HIT %:    99.6409  MISS %:   0.359066   MPKI: 4e-05
L2C PREFETCH  REQUESTED:          0  ISSUED:          0  USEFUL:        147  USELESS:        153
L2C USEFUL LOAD PREFETCHES:        147 PREFETCH ISSUED TO LOWER LEVEL:        283  ACCURACY: 51.9435
L2C TIMELY PREFETCHES:        147 LATE PREFETCHES: 0 DROPPED PREFETCHES: 0
L2C PREFETCHES SAME FILL-ORIGIN LEVEL: 199 DIFFERENT FILL-ORIGIN LEVEL: 0
L2C AVERAGE MISS LATENCY: 230.932 cycles
L2C RQ	ACCESS:   23335889	FORWARD:          0	MERGED:          0	TO_CACHE:   22916657
L2C WQ	ACCESS:    1793781	FORWARD:     419233	MERGED:          0	TO_CACHE:    1793781
L2C PQ	ACCESS:       8169	FORWARD:          0	MERGED:          0	TO_CACHE:       8168

L2C Instructions Evicting Data 786
L2C Translations Evicting Data 33542
L2C Data Evicting Data 2159247
L2C Instructions Evicting Instructions 40
L2C Translations Evicting Instructions 27
L2C Data Evicting Instructions 924
L2C Instructions Evicting Translations 21
L2C Translations Evicting Translations 608
L2C Data Evicting Translations 33555
L2C Dense regions hint from L2: 0
PSCL5 TOTAL     ACCESS:      25780  HIT:      25780  MISS:          0  HIT %:        100  MISS %:          0   MPKI: 0
PSCL5 LOAD TRANSLATION ACCESS:      24549  HIT:      24549  MISS:          0  HIT %:        100  MISS %:          0   MPKI: 0
PSCL5 TRANSLATION FROM L1D PREFETCHER ACCESS:       1231  HIT:       1231  MISS:          0  HIT %:        100  MISS %:          0   MPKI: 0
PSCL5 PREFETCH  REQUESTED:          0  ISSUED:          0  USEFUL:          0  USELESS:          0
PSCL5 USEFUL LOAD PREFETCHES:          0 PREFETCH ISSUED TO LOWER LEVEL:          0  ACCURACY: -nan
PSCL5 TIMELY PREFETCHES:          0 LATE PREFETCHES: 0 DROPPED PREFETCHES: 0
PSCL5 PREFETCHES SAME FILL-ORIGIN LEVEL: 0 DIFFERENT FILL-ORIGIN LEVEL: 0

PSCL4 TOTAL     ACCESS:      25780  HIT:      25780  MISS:          0  HIT %:        100  MISS %:          0   MPKI: 0
PSCL4 LOAD TRANSLATION ACCESS:      24549  HIT:      24549  MISS:          0  HIT %:        100  MISS %:          0   MPKI: 0
PSCL4 TRANSLATION FROM L1D PREFETCHER ACCESS:       1231  HIT:       1231  MISS:          0  HIT %:        100  MISS %:          0   MPKI: 0
PSCL4 PREFETCH  REQUESTED:          0  ISSUED:          0  USEFUL:          0  USELESS:          0
PSCL4 USEFUL LOAD PREFETCHES:          0 PREFETCH ISSUED TO LOWER LEVEL:          0  ACCURACY: -nan
PSCL4 TIMELY PREFETCHES:          0 LATE PREFETCHES: 0 DROPPED PREFETCHES: 0
PSCL4 PREFETCHES SAME FILL-ORIGIN LEVEL: 0 DIFFERENT FILL-ORIGIN LEVEL: 0

PSCL3 TOTAL     ACCESS:      25615  HIT:      25611  MISS:          4  HIT %:    99.9844  MISS %:  0.0156159   MPKI: 2e-05
PSCL3 LOAD TRANSLATION ACCESS:      24549  HIT:      24545  MISS:          4  HIT %:    99.9837  MISS %:  0.0162939   MPKI: 2e-05
PSCL3 TRANSLATION FROM L1D PREFETCHER ACCESS:       1066  HIT:       1066  MISS:          0  HIT %:        100  MISS %:          0   MPKI: 0
PSCL3 PREFETCH  REQUESTED:          0  ISSUED:          0  USEFUL:          0  USELESS:          0
PSCL3 USEFUL LOAD PREFETCHES:          0 PREFETCH ISSUED TO LOWER LEVEL:          0  ACCURACY: -nan
PSCL3 TIMELY PREFETCHES:          0 LATE PREFETCHES: 0 DROPPED PREFETCHES: 0
PSCL3 PREFETCHES SAME FILL-ORIGIN LEVEL: 0 DIFFERENT FILL-ORIGIN LEVEL: 0

PSCL2 TOTAL     ACCESS:      24948  HIT:      10145  MISS:      14803  HIT %:    40.6646  MISS %:    59.3354   MPKI: 0.074015
PSCL2 LOAD TRANSLATION ACCESS:      24549  HIT:       9746  MISS:      14803  HIT %:    39.7002  MISS %:    60.2998   MPKI: 0.074015
PSCL2 TRANSLATION FROM L1D PREFETCHER ACCESS:        399  HIT:        399  MISS:          0  HIT %:        100  MISS %:          0   MPKI: 0
PSCL2 PREFETCH  REQUESTED:          0  ISSUED:          0  USEFUL:          0  USELESS:          0
PSCL2 USEFUL LOAD PREFETCHES:          0 PREFETCH ISSUED TO LOWER LEVEL:          0  ACCURACY: -nan
PSCL2 TIMELY PREFETCHES:          0 LATE PREFETCHES: 0 DROPPED PREFETCHES: 0
PSCL2 PREFETCHES SAME FILL-ORIGIN LEVEL: 0 DIFFERENT FILL-ORIGIN LEVEL: 0

LLC TOTAL     ACCESS:    2419660  HIT:     869618  MISS:    1550042  HIT %:    35.9397  MISS %:    64.0603   MPKI: 7.75021
LLC LOAD      ACCESS:    2172440  HIT:     630158  MISS:    1542282  HIT %:    29.0069  MISS %:    70.9931   MPKI: 7.71141
LLC RFO       ACCESS:      21842  HIT:      20700  MISS:       1142  HIT %:    94.7715  MISS %:    5.22846   MPKI: 0.00571
LLC PREFETCH  ACCESS:        283  HIT:         66  MISS:        217  HIT %:    23.3216  MISS %:    76.6784   MPKI: 0.001085
LLC WRITEBACK ACCESS:     190918  HIT:     188259  MISS:       2659  HIT %:    98.6073  MISS %:    1.39274   MPKI: 0.013295
LLC LOAD TRANSLATION ACCESS:      34169  HIT:      30431  MISS:       3738  HIT %:    89.0603  MISS %:    10.9397   MPKI: 0.01869
LLC TRANSLATION FROM L1D PREFETCHER ACCESS:          8  HIT:          4  MISS:          4  HIT %:         50  MISS %:         50   MPKI: 2e-05
LLC PREFETCH  REQUESTED:          0  ISSUED:          0  USEFUL:         56  USELESS:        336
LLC USEFUL LOAD PREFETCHES:         56 PREFETCH ISSUED TO LOWER LEVEL:        217  ACCURACY: 25.8065
LLC TIMELY PREFETCHES:         56 LATE PREFETCHES: 0 DROPPED PREFETCHES: 0
LLC PREFETCHES SAME FILL-ORIGIN LEVEL: 0 DIFFERENT FILL-ORIGIN LEVEL: 0
LLC AVERAGE MISS LATENCY: 288.083 cycles
LLC RQ	ACCESS:    2228468	FORWARD:          0	MERGED:          0	TO_CACHE:    2228460
LLC WQ	ACCESS:     190918	FORWARD:          8	MERGED:          0	TO_CACHE:     190918
LLC PQ	ACCESS:        283	FORWARD:          0	MERGED:          0	TO_CACHE:        283

LLC Dense regions hint to LLC: 0

RAW hits: 84467
Loads Generated: 57291774
Loads sent to L1D: 57207302
Stores Generated: 22785114
Stores sent to L1D: 22785114
Major fault: 0 Minor fault: 17275
Allocated PAGES: 17275

DRAM Statistics
 CHANNEL 0
 RQ ROW_BUFFER_HIT:     752905  ROW_BUFFER_MISS:     794479
 DBUS_CONGESTED:        261
 WQ ROW_BUFFER_HIT:      97039  ROW_BUFFER_MISS:      94764  FULL:          0

 AVG_CONGESTED_CYCLE: 5
 All warmup complete: 2
Channel 0 Bank busy for read cycles: 0
Channel 0 Bank busy for write cycles: 0
Channel 0
Rank 0
0banks busy for read cycles: 154050905
0banks busy for write cycles: 45276
1banks busy for read cycles: 32434925
1banks busy for write cycles: 10712175
2banks busy for read cycles: 5048905
2banks busy for write cycles: 2817941
3banks busy for read cycles: 35496210
3banks busy for write cycles: 6105854
4banks busy for read cycles: 1706065
4banks busy for write cycles: 1930427
5banks busy for read cycles: 180259
5banks busy for write cycles: 171870
6banks busy for read cycles: 9842
6banks busy for write cycles: 28390
7banks busy for read cycles: 1918
7banks busy for write cycles: 4618
8banks busy for read cycles: 0
8banks busy for write cycles: 830

CPU 0 Branch Prediction Accuracy: 99.5751% MPKI: 0.003105 Average ROB Occupancy at Mispredict: 27.0161
Branch types
NOT_BRANCH: 199721295 99.8606%
BRANCH_DIRECT_JUMP: 61458 0.030729%
BRANCH_INDIRECT: 58898 0.029449%
BRANCH_CONDITIONAL: 146148 0.073074%
BRANCH_DIRECT_CALL: 6013 0.0030065%
BRANCH_INDIRECT_CALL: 3 1.5e-06%
BRANCH_RETURN: 6018 0.003009%
BRANCH_OTHER: 0 0%

DRAM PAGES: 1048576
Allocated PAGES: 17275
