 (TOTAL 67349)
 
*** ChampSim Multicore Out-of-Order Simulator ***

Warmup Instructions: 50000000
Simulation Instructions: 200000000
Number of CPUs: 1
LLC sets: 2048
LLC ways: 16
Off-chip DRAM Size: 4096 MB Channels: 1 Width: 64-bit Data Rate: 6400 MT/s
argv[0]: ./ChampSim/Berti/bin/tagescl8kb-no-vberti-no-no-no-no-no-lru-lru-lru-srrip-drrip-lru-lru-lru-1core-no
argv[1]: -warmup_instructions
argv[2]: 50000000
argv[3]: -simulation_instructions
argv[4]: 200000000
argv[5]: -traces
argv[6]: traces/spec2k17_ten/607.cactuBSSN_s-3477B.champsimtrace.xz
CPU 0 runs traces/spec2k17_ten/607.cactuBSSN_s-3477B.champsimtrace.xz
.xz
CPU 0 Tage branch predictor
BTB has LRU replacement policy
ITLB has LRU replacement policy
DTLB has LRU replacement policy
STLB has LRU replacement policy
L1I has LRU replacement policy
History Sets: 8
History Ways: 16
BERTI Size: 16
BERTI Stride Size: 16
L1D has LRU replacement policy
Initialize SRRIP state for L2C
Initialize DRRIP state for LLC
Heartbeat CPU 0 instructions: 10000000 cycles: 3672595 heartbeat IPC: 2.72287 cumulative IPC: 2.72287 (Simulation time: 0 hr 10 min 44 sec) 
Heartbeat CPU 0 instructions: 20000003 cycles: 7343459 heartbeat IPC: 2.72416 cumulative IPC: 2.72351 (Simulation time: 0 hr 17 min 57 sec) 
Heartbeat CPU 0 instructions: 30000000 cycles: 11014346 heartbeat IPC: 2.72414 cumulative IPC: 2.72372 (Simulation time: 0 hr 24 min 32 sec) 
Heartbeat CPU 0 instructions: 40000003 cycles: 14685082 heartbeat IPC: 2.72425 cumulative IPC: 2.72385 (Simulation time: 0 hr 31 min 15 sec) 
Heartbeat CPU 0 instructions: 50000000 cycles: 18358264 heartbeat IPC: 2.72243 cumulative IPC: 2.72357 (Simulation time: 0 hr 37 min 37 sec) 

Warmup complete CPU 0 instructions: 50000004 cycles: 18358265 (Simulation time: 0 hr 37 min 37 sec) 

Heartbeat CPU 0 instructions: 60000000 cycles: 30160294 heartbeat IPC: 0.847312 cumulative IPC: 0.847312 (Simulation time: 0 hr 44 min 34 sec) 
Heartbeat CPU 0 instructions: 70000001 cycles: 42045779 heartbeat IPC: 0.841362 cumulative IPC: 0.844327 (Simulation time: 0 hr 52 min 42 sec) 
Heartbeat CPU 0 instructions: 80000001 cycles: 53957942 heartbeat IPC: 0.839478 cumulative IPC: 0.842704 (Simulation time: 1 hr 1 min 52 sec) 
Heartbeat CPU 0 instructions: 90000002 cycles: 65850872 heartbeat IPC: 0.840836 cumulative IPC: 0.842236 (Simulation time: 1 hr 10 min 53 sec) 
Heartbeat CPU 0 instructions: 100000000 cycles: 77681786 heartbeat IPC: 0.845243 cumulative IPC: 0.842836 (Simulation time: 1 hr 17 min 2 sec) 
Heartbeat CPU 0 instructions: 110000000 cycles: 89531347 heartbeat IPC: 0.843913 cumulative IPC: 0.843015 (Simulation time: 1 hr 22 min 1 sec) 
Heartbeat CPU 0 instructions: 120000002 cycles: 101380109 heartbeat IPC: 0.84397 cumulative IPC: 0.843152 (Simulation time: 1 hr 29 min 52 sec) 
Heartbeat CPU 0 instructions: 130000002 cycles: 113253174 heartbeat IPC: 0.842242 cumulative IPC: 0.843038 (Simulation time: 1 hr 35 min 33 sec) 
Heartbeat CPU 0 instructions: 140000000 cycles: 125089300 heartbeat IPC: 0.844871 cumulative IPC: 0.843241 (Simulation time: 1 hr 42 min 20 sec) 
Heartbeat CPU 0 instructions: 150000000 cycles: 136967203 heartbeat IPC: 0.841899 cumulative IPC: 0.843107 (Simulation time: 1 hr 49 min 36 sec) 
Heartbeat CPU 0 instructions: 160000002 cycles: 148875256 heartbeat IPC: 0.839768 cumulative IPC: 0.842802 (Simulation time: 1 hr 54 min 32 sec) 
Heartbeat CPU 0 instructions: 170000000 cycles: 160735846 heartbeat IPC: 0.843128 cumulative IPC: 0.842829 (Simulation time: 2 hr 0 min 26 sec) 
Heartbeat CPU 0 instructions: 180000000 cycles: 172633173 heartbeat IPC: 0.840525 cumulative IPC: 0.842652 (Simulation time: 2 hr 5 min 13 sec) 
Heartbeat CPU 0 instructions: 190000001 cycles: 184457961 heartbeat IPC: 0.845681 cumulative IPC: 0.842867 (Simulation time: 2 hr 12 min 36 sec) 
Heartbeat CPU 0 instructions: 200000001 cycles: 196508831 heartbeat IPC: 0.829816 cumulative IPC: 0.841984 (Simulation time: 2 hr 19 min 27 sec) 
Heartbeat CPU 0 instructions: 210000001 cycles: 208400009 heartbeat IPC: 0.84096 cumulative IPC: 0.84192 (Simulation time: 2 hr 27 min 44 sec) 
Heartbeat CPU 0 instructions: 220000000 cycles: 220290926 heartbeat IPC: 0.840978 cumulative IPC: 0.841865 (Simulation time: 2 hr 34 min 37 sec) 
Heartbeat CPU 0 instructions: 230000000 cycles: 232103238 heartbeat IPC: 0.846574 cumulative IPC: 0.842125 (Simulation time: 2 hr 41 min 33 sec) 
Heartbeat CPU 0 instructions: 240000001 cycles: 243963237 heartbeat IPC: 0.84317 cumulative IPC: 0.84218 (Simulation time: 2 hr 49 min 1 sec) 
Heartbeat CPU 0 instructions: 250000001 cycles: 255846505 heartbeat IPC: 0.841519 cumulative IPC: 0.842147 (Simulation time: 2 hr 56 min 24 sec) 
Finished CPU 0 instructions: 200000001 cycles: 237488241 cumulative IPC: 0.842147 (Simulation time: 2 hr 56 min 24 sec) 

ChampSim completed all CPUs

Region of Interest Statistics

CPU 0 cumulative IPC: 0.842147 instructions: 200000001 cycles: 237488241
ITLB TOTAL     ACCESS:   28004318  HIT:   28004318  MISS:          0  HIT %:        100  MISS %:          0   MPKI: 0
ITLB LOAD TRANSLATION ACCESS:   28004318  HIT:   28004318  MISS:          0  HIT %:        100  MISS %:          0   MPKI: 0
ITLB PREFETCH  REQUESTED:          0  ISSUED:          0  USEFUL:          0  USELESS:          0
ITLB USEFUL LOAD PREFETCHES:          0 PREFETCH ISSUED TO LOWER LEVEL:          0  ACCURACY: -nan
ITLB TIMELY PREFETCHES:          0 LATE PREFETCHES: 0 DROPPED PREFETCHES: 0
ITLB PREFETCHES SAME FILL-ORIGIN LEVEL: 0 DIFFERENT FILL-ORIGIN LEVEL: 0
ITLB AVERAGE MISS LATENCY: -nan cycles
ITLB RQ	ACCESS:   34306720	FORWARD:          0	MERGED:    6302401	TO_CACHE:   28004319

DTLB TOTAL     ACCESS:   59957978  HIT:   52385317  MISS:    7572661  HIT %:    87.3701  MISS %:    12.6299   MPKI: 37.8633
DTLB LOAD TRANSLATION ACCESS:   59957978  HIT:   52385317  MISS:    7572661  HIT %:    87.3701  MISS %:    12.6299   MPKI: 37.8633
DTLB PREFETCH  REQUESTED:          0  ISSUED:          0  USEFUL:          0  USELESS:          0
DTLB USEFUL LOAD PREFETCHES:          0 PREFETCH ISSUED TO LOWER LEVEL:          0  ACCURACY: -nan
DTLB TIMELY PREFETCHES:          0 LATE PREFETCHES: 0 DROPPED PREFETCHES: 0
DTLB PREFETCHES SAME FILL-ORIGIN LEVEL: 0 DIFFERENT FILL-ORIGIN LEVEL: 0
DTLB AVERAGE MISS LATENCY: 9.97671 cycles
DTLB RQ	ACCESS:   78738591	FORWARD:          0	MERGED:   17996573	TO_CACHE:   60742018

STLB TOTAL     ACCESS:    7730378  HIT:    7722059  MISS:       8319  HIT %:    99.8924  MISS %:   0.107614   MPKI: 0.041595
STLB LOAD TRANSLATION ACCESS:    7572661  HIT:    7564546  MISS:       8115  HIT %:    99.8928  MISS %:   0.107162   MPKI: 0.040575
STLB TRANSLATION FROM L1D PREFETCHER ACCESS:     157717  HIT:     157513  MISS:        204  HIT %:    99.8707  MISS %:   0.129346   MPKI: 0.00102
STLB PREFETCH  REQUESTED:          0  ISSUED:          0  USEFUL:        204  USELESS:          0
STLB USEFUL LOAD PREFETCHES:        204 PREFETCH ISSUED TO LOWER LEVEL:          0  ACCURACY: inf
STLB TIMELY PREFETCHES:        204 LATE PREFETCHES: 2 DROPPED PREFETCHES: 114564
STLB PREFETCHES SAME FILL-ORIGIN LEVEL: 0 DIFFERENT FILL-ORIGIN LEVEL: 0
STLB AVERAGE MISS LATENCY: 551.513 cycles
STLB RQ	ACCESS:    7859573	FORWARD:          0	MERGED:      14018	TO_CACHE:    7845555

STLB Hit, L1D data hit: 0
STLB Hit, L2C data hit: 0
STLB Hit, LLC data hit: 0
STLB Hit, LLC data miss: 0
STLB STLB hints to L2: 0
L1D TOTAL     ACCESS:   78375602  HIT:   63718040  MISS:   14657562  HIT %:    81.2983  MISS %:    18.7017   MPKI: 73.2878
L1D LOAD      ACCESS:   62519844  HIT:   49068769  MISS:   13451075  HIT %:    78.4851  MISS %:    21.5149   MPKI: 67.2554
L1D RFO       ACCESS:   15809482  HIT:   14604212  MISS:    1205270  HIT %:    92.3763  MISS %:    7.62372   MPKI: 6.02635
L1D PREFETCH  ACCESS:      46276  HIT:      45059  MISS:       1217  HIT %:    97.3701  MISS %:    2.62987   MPKI: 0.006085
L1D PREFETCH  REQUESTED:     574420  ISSUED:     574420  USEFUL:        368  USELESS:        849
L1D USEFUL LOAD PREFETCHES:        368 PREFETCH ISSUED TO LOWER LEVEL:     111963  ACCURACY: 0.32868
L1D TIMELY PREFETCHES:        368 LATE PREFETCHES: 73 DROPPED PREFETCHES: 117864
L1D PREFETCHES SAME FILL-ORIGIN LEVEL: 1290 DIFFERENT FILL-ORIGIN LEVEL: 110673
L1D AVERAGE MISS LATENCY: 29.1381 cycles
L1D RQ	ACCESS:   77380948	FORWARD:          0	MERGED:   14488135	TO_CACHE:   62831191
L1D WQ	ACCESS:   16015909	FORWARD:      61622	MERGED:     108509	TO_CACHE:   15907400
L1D PQ	ACCESS:     287508	FORWARD:          0	MERGED:        596	TO_CACHE:     286912

L1D UNIQUE REGIONS ACCESSED: 0
L1D REGIONS CONFLICTS: 0
L1D Cross Page Prefetch Requests: 355596
L1D Same Page Prefetch Requests: 34369
L1D ROI Sum of L1D PQ occupancy: 7722219
L1D PREFETCHES PUSHED FROM L2C: 0
L1I TOTAL     ACCESS:   31351908  HIT:   25567477  MISS:    5784431  HIT %:      81.55  MISS %:      18.45   MPKI: 28.9222
L1I LOAD      ACCESS:   31351908  HIT:   25567477  MISS:    5784431  HIT %:      81.55  MISS %:      18.45   MPKI: 28.9222
L1I PREFETCH  REQUESTED:          0  ISSUED:          0  USEFUL:          0  USELESS:          0
L1I USEFUL LOAD PREFETCHES:          0 PREFETCH ISSUED TO LOWER LEVEL:          0  ACCURACY: -nan
L1I TIMELY PREFETCHES:          0 LATE PREFETCHES: 0 DROPPED PREFETCHES: 0
L1I PREFETCHES SAME FILL-ORIGIN LEVEL: 0 DIFFERENT FILL-ORIGIN LEVEL: 0
L1I AVERAGE MISS LATENCY: 14.0766 cycles
L1I RQ	ACCESS:   47874914	FORWARD:          0	MERGED:   13568194	TO_CACHE:   34306720

BTB TOTAL     ACCESS:    1169485  HIT:    1096958  MISS:      72527  HIT %:    93.7984  MISS %:    6.20162   MPKI: 0.362635
BTB BRANCH_DIRECT_JUMP	ACCESS:     217104  HIT:     217073  MISS:         31
BTB BRANCH_INDIRECT	ACCESS:      36158  HIT:      36156  MISS:          2
BTB BRANCH_CONDITIONAL	ACCESS:     482257  HIT:     482171  MISS:         86
BTB BRANCH_DIRECT_CALL	ACCESS:     216983  HIT:     216939  MISS:         44
BTB BRANCH_INDIRECT_CALL	ACCESS:          0  HIT:          0  MISS:          0
BTB BRANCH_RETURN	ACCESS:     216983  HIT:     144619  MISS:      72364
BTB BRANCH_OTHER ACCESS:          0  HIT:          0  MISS:          0

L2C TOTAL     ACCESS:   22116912  HIT:   21068655  MISS:    1048257  HIT %:    95.2604  MISS %:    4.73962   MPKI: 5.24128
L2C LOAD      ACCESS:   19233615  HIT:   18333625  MISS:     899990  HIT %:    95.3207  MISS %:    4.67926   MPKI: 4.49995
L2C DATA LOAD MPKI: 4.49764
L2C INSTRUCTION LOAD MPKI: 0.00231
L2C RFO       ACCESS:    1204336  HIT:    1087241  MISS:     117095  HIT %:    90.2772  MISS %:    9.72279   MPKI: 0.585475
L2C PREFETCH  ACCESS:     111925  HIT:      98461  MISS:      13464  HIT %:    87.9705  MISS %:    12.0295   MPKI: 0.06732
L2C DATA PREFETCH MPKI: 0.06732
L2C INSTRUCTION PREFETCH MPKI: 0
L2C WRITEBACK ACCESS:    1298982  HIT:    1293814  MISS:       5168  HIT %:    99.6021  MISS %:    0.39785   MPKI: 0.02584
L2C LOAD TRANSLATION ACCESS:      12319  HIT:        358  MISS:      11961  HIT %:    2.90608  MISS %:    97.0939   MPKI: 0.059805
L2C TRANSLATION FROM L1D PREFETCHER ACCESS:     255735  HIT:     255156  MISS:        579  HIT %:    99.7736  MISS %:   0.226406   MPKI: 0.002895
L2C PREFETCH  REQUESTED:          0  ISSUED:          0  USEFUL:       5745  USELESS:       8277
L2C USEFUL LOAD PREFETCHES:       5745 PREFETCH ISSUED TO LOWER LEVEL:      13497  ACCURACY: 42.565
L2C TIMELY PREFETCHES:       5745 LATE PREFETCHES: 33 DROPPED PREFETCHES: 0
L2C PREFETCHES SAME FILL-ORIGIN LEVEL: 13103 DIFFERENT FILL-ORIGIN LEVEL: 0
L2C AVERAGE MISS LATENCY: 193.504 cycles
L2C RQ	ACCESS:   20708757	FORWARD:          0	MERGED:          0	TO_CACHE:   20706005
L2C WQ	ACCESS:    1298982	FORWARD:       2752	MERGED:          0	TO_CACHE:    1298982
L2C PQ	ACCESS:     111963	FORWARD:          0	MERGED:          0	TO_CACHE:     111963

L2C Instructions Evicting Data 454
L2C Translations Evicting Data 12431
L2C Data Evicting Data 1017207
L2C Instructions Evicting Instructions 7
L2C Translations Evicting Instructions 5
L2C Data Evicting Instructions 448
L2C Instructions Evicting Translations 1
L2C Translations Evicting Translations 104
L2C Data Evicting Translations 12432
L2C Dense regions hint from L2: 0
PSCL5 TOTAL     ACCESS:     122885  HIT:     122885  MISS:          0  HIT %:        100  MISS %:          0   MPKI: 0
PSCL5 LOAD TRANSLATION ACCESS:       8115  HIT:       8115  MISS:          0  HIT %:        100  MISS %:          0   MPKI: 0
PSCL5 TRANSLATION FROM L1D PREFETCHER ACCESS:     114770  HIT:     114770  MISS:          0  HIT %:        100  MISS %:          0   MPKI: 0
PSCL5 PREFETCH  REQUESTED:          0  ISSUED:          0  USEFUL:          0  USELESS:          0
PSCL5 USEFUL LOAD PREFETCHES:          0 PREFETCH ISSUED TO LOWER LEVEL:          0  ACCURACY: -nan
PSCL5 TIMELY PREFETCHES:          0 LATE PREFETCHES: 0 DROPPED PREFETCHES: 0
PSCL5 PREFETCHES SAME FILL-ORIGIN LEVEL: 0 DIFFERENT FILL-ORIGIN LEVEL: 0

PSCL4 TOTAL     ACCESS:     122885  HIT:     122885  MISS:          0  HIT %:        100  MISS %:          0   MPKI: 0
PSCL4 LOAD TRANSLATION ACCESS:       8115  HIT:       8115  MISS:          0  HIT %:        100  MISS %:          0   MPKI: 0
PSCL4 TRANSLATION FROM L1D PREFETCHER ACCESS:     114770  HIT:     114770  MISS:          0  HIT %:        100  MISS %:          0   MPKI: 0
PSCL4 PREFETCH  REQUESTED:          0  ISSUED:          0  USEFUL:          0  USELESS:          0
PSCL4 USEFUL LOAD PREFETCHES:          0 PREFETCH ISSUED TO LOWER LEVEL:          0  ACCURACY: -nan
PSCL4 TIMELY PREFETCHES:          0 LATE PREFETCHES: 0 DROPPED PREFETCHES: 0
PSCL4 PREFETCHES SAME FILL-ORIGIN LEVEL: 0 DIFFERENT FILL-ORIGIN LEVEL: 0

PSCL3 TOTAL     ACCESS:      80295  HIT:      80290  MISS:          5  HIT %:    99.9938  MISS %: 0.00622704   MPKI: 2.5e-05
PSCL3 LOAD TRANSLATION ACCESS:       8104  HIT:       8099  MISS:          5  HIT %:    99.9383  MISS %:  0.0616979   MPKI: 2.5e-05
PSCL3 TRANSLATION FROM L1D PREFETCHER ACCESS:      72191  HIT:      72191  MISS:          0  HIT %:        100  MISS %:          0   MPKI: 0
PSCL3 PREFETCH  REQUESTED:          0  ISSUED:          0  USEFUL:          0  USELESS:          0
PSCL3 USEFUL LOAD PREFETCHES:          0 PREFETCH ISSUED TO LOWER LEVEL:          0  ACCURACY: -nan
PSCL3 TIMELY PREFETCHES:          0 LATE PREFETCHES: 0 DROPPED PREFETCHES: 0
PSCL3 PREFETCHES SAME FILL-ORIGIN LEVEL: 0 DIFFERENT FILL-ORIGIN LEVEL: 0

PSCL2 TOTAL     ACCESS:      24545  HIT:      20282  MISS:       4263  HIT %:    82.6319  MISS %:    17.3681   MPKI: 0.021315
PSCL2 LOAD TRANSLATION ACCESS:       8169  HIT:       3906  MISS:       4263  HIT %:    47.8149  MISS %:    52.1851   MPKI: 0.021315
PSCL2 TRANSLATION FROM L1D PREFETCHER ACCESS:      16376  HIT:      16376  MISS:          0  HIT %:        100  MISS %:          0   MPKI: 0
PSCL2 PREFETCH  REQUESTED:          0  ISSUED:          0  USEFUL:          0  USELESS:          0
PSCL2 USEFUL LOAD PREFETCHES:          0 PREFETCH ISSUED TO LOWER LEVEL:          0  ACCURACY: -nan
PSCL2 TIMELY PREFETCHES:          0 LATE PREFETCHES: 0 DROPPED PREFETCHES: 0
PSCL2 PREFETCHES SAME FILL-ORIGIN LEVEL: 0 DIFFERENT FILL-ORIGIN LEVEL: 0

LLC TOTAL     ACCESS:    1160325  HIT:     619272  MISS:     541053  HIT %:    53.3706  MISS %:    46.6294   MPKI: 2.70526
LLC LOAD      ACCESS:     899957  HIT:     490762  MISS:     409195  HIT %:    54.5317  MISS %:    45.4683   MPKI: 2.04597
LLC RFO       ACCESS:     117094  HIT:          7  MISS:     117087  HIT %:  0.0059781  MISS %:     99.994   MPKI: 0.585435
LLC PREFETCH  ACCESS:      13497  HIT:       1846  MISS:      11651  HIT %:    13.6771  MISS %:    86.3229   MPKI: 0.058255
LLC WRITEBACK ACCESS:     117237  HIT:     115376  MISS:       1861  HIT %:    98.4126  MISS %:    1.58738   MPKI: 0.009305
LLC LOAD TRANSLATION ACCESS:      11961  HIT:      10791  MISS:       1170  HIT %:    90.2182  MISS %:    9.78179   MPKI: 0.00585
LLC TRANSLATION FROM L1D PREFETCHER ACCESS:        579  HIT:        490  MISS:         89  HIT %:    84.6287  MISS %:    15.3713   MPKI: 0.000445
LLC PREFETCH  REQUESTED:          0  ISSUED:          0  USEFUL:       6970  USELESS:       4796
LLC USEFUL LOAD PREFETCHES:       6970 PREFETCH ISSUED TO LOWER LEVEL:      11651  ACCURACY: 59.8232
LLC TIMELY PREFETCHES:       6970 LATE PREFETCHES: 0 DROPPED PREFETCHES: 0
LLC PREFETCHES SAME FILL-ORIGIN LEVEL: 0 DIFFERENT FILL-ORIGIN LEVEL: 0
LLC AVERAGE MISS LATENCY: 316.337 cycles
LLC RQ	ACCESS:    1029592	FORWARD:          0	MERGED:          0	TO_CACHE:    1029591
LLC WQ	ACCESS:     117237	FORWARD:          1	MERGED:          0	TO_CACHE:     117237
LLC PQ	ACCESS:      13497	FORWARD:          0	MERGED:          0	TO_CACHE:      13497

LLC Dense regions hint to LLC: 0

RAW hits: 454711
Loads Generated: 77835659
Loads sent to L1D: 77380948
Stores Generated: 16016275
Stores sent to L1D: 16016277
Major fault: 0 Minor fault: 8463
Allocated PAGES: 8463

DRAM Statistics
 CHANNEL 0
 RQ ROW_BUFFER_HIT:     274302  ROW_BUFFER_MISS:     264890
 DBUS_CONGESTED:        174
 WQ ROW_BUFFER_HIT:      36897  ROW_BUFFER_MISS:      79319  FULL:          0

 AVG_CONGESTED_CYCLE: 4
 All warmup complete: 2
Channel 0 Bank busy for read cycles: 0
Channel 0 Bank busy for write cycles: 0
Channel 0
Rank 0
0banks busy for read cycles: 186179202
0banks busy for write cycles: 51106
1banks busy for read cycles: 26656649
1banks busy for write cycles: 9033746
2banks busy for read cycles: 5486850
2banks busy for write cycles: 2291552
3banks busy for read cycles: 2704369
3banks busy for write cycles: 2214897
4banks busy for read cycles: 495133
4banks busy for write cycles: 621402
5banks busy for read cycles: 564830
5banks busy for write cycles: 336650
6banks busy for read cycles: 347311
6banks busy for write cycles: 276086
7banks busy for read cycles: 116511
7banks busy for write cycles: 106740
8banks busy for read cycles: 389
8banks busy for write cycles: 4819

CPU 0 Branch Prediction Accuracy: 99.9937% MPKI: 0.000345 Average ROB Occupancy at Mispredict: 16.971
Branch types
NOT_BRANCH: 198225696 99.1128%
BRANCH_DIRECT_JUMP: 217104 0.108552%
BRANCH_INDIRECT: 36158 0.018079%
BRANCH_CONDITIONAL: 1086728 0.543364%
BRANCH_DIRECT_CALL: 216983 0.108491%
BRANCH_INDIRECT_CALL: 0 0%
BRANCH_RETURN: 216983 0.108491%
BRANCH_OTHER: 0 0%

DRAM PAGES: 1048576
Allocated PAGES: 8463
