526208 bits of metadata so far, 405638 left out of 526336 total budget
table size is 13521 bits, 2253 entries for 5 bit, 1931 entries for 6 bit
526208 total bits (64.23KB)

*** ChampSim Multicore Out-of-Order Simulator ***

Warmup Instructions: 50000000
Simulation Instructions: 200000000
Number of CPUs: 1
LLC sets: 2048
LLC ways: 16
Off-chip DRAM Size: 4096 MB Channels: 1 Width: 64-bit Data Rate: 6400 MT/s
argv[0]: ./ChampSim/Berti/bin/multiperspective_perceptron-no-vberti-no-no-no-no-no-lru-lru-lru-srrip-drrip-lru-lru-lru-1core-no
argv[1]: -warmup_instructions
argv[2]: 50000000
argv[3]: -simulation_instructions
argv[4]: 200000000
argv[5]: -traces
argv[6]: traces/spec2k17_ten/644.nab_s-12521B.champsimtrace.xz
CPU 0 runs traces/spec2k17_ten/644.nab_s-12521B.champsimtrace.xz
.xz
CPU 0 Multiperspective perceptron branch predictor
BTB has LRU replacement policy
ITLB has LRU replacement policy
DTLB has LRU replacement policy
STLB has LRU replacement policy
L1I has LRU replacement policy
History Sets: 8
History Ways: 16
BERTI Size: 16
BERTI Stride Size: 16
L1D has LRU replacement policy
Initialize SRRIP state for L2C
Initialize DRRIP state for LLC
Heartbeat CPU 0 instructions: 10000000 cycles: 3019224 heartbeat IPC: 3.31211 cumulative IPC: 3.31211 (Simulation time: 0 hr 7 min 7 sec) 
Heartbeat CPU 0 instructions: 20000000 cycles: 6039543 heartbeat IPC: 3.31091 cumulative IPC: 3.31151 (Simulation time: 0 hr 14 min 19 sec) 
Heartbeat CPU 0 instructions: 30000000 cycles: 9060911 heartbeat IPC: 3.30976 cumulative IPC: 3.31093 (Simulation time: 0 hr 21 min 9 sec) 
Heartbeat CPU 0 instructions: 40000001 cycles: 12082758 heartbeat IPC: 3.30923 cumulative IPC: 3.3105 (Simulation time: 0 hr 25 min 59 sec) 
Heartbeat CPU 0 instructions: 50000001 cycles: 15102640 heartbeat IPC: 3.31139 cumulative IPC: 3.31068 (Simulation time: 0 hr 31 min 34 sec) 

Warmup complete CPU 0 instructions: 50000001 cycles: 15102640 (Simulation time: 0 hr 31 min 34 sec) 

Heartbeat CPU 0 instructions: 60000000 cycles: 24877345 heartbeat IPC: 1.02305 cumulative IPC: 1.02305 (Simulation time: 0 hr 38 min 18 sec) 
Heartbeat CPU 0 instructions: 70000000 cycles: 34626899 heartbeat IPC: 1.02569 cumulative IPC: 1.02437 (Simulation time: 0 hr 44 min 12 sec) 
Heartbeat CPU 0 instructions: 80000002 cycles: 44362249 heartbeat IPC: 1.02718 cumulative IPC: 1.0253 (Simulation time: 0 hr 50 min 53 sec) 
Heartbeat CPU 0 instructions: 90000002 cycles: 54136067 heartbeat IPC: 1.02314 cumulative IPC: 1.02476 (Simulation time: 0 hr 56 min 47 sec) 
Heartbeat CPU 0 instructions: 100000003 cycles: 63946930 heartbeat IPC: 1.01928 cumulative IPC: 1.02366 (Simulation time: 1 hr 3 min 11 sec) 
Heartbeat CPU 0 instructions: 110000000 cycles: 73671573 heartbeat IPC: 1.02832 cumulative IPC: 1.02443 (Simulation time: 1 hr 10 min 5 sec) 
Heartbeat CPU 0 instructions: 120000003 cycles: 83382518 heartbeat IPC: 1.02977 cumulative IPC: 1.02519 (Simulation time: 1 hr 17 min 25 sec) 
Heartbeat CPU 0 instructions: 130000003 cycles: 93110909 heartbeat IPC: 1.02792 cumulative IPC: 1.02553 (Simulation time: 1 hr 23 min 41 sec) 
Heartbeat CPU 0 instructions: 140000002 cycles: 102837513 heartbeat IPC: 1.02811 cumulative IPC: 1.02582 (Simulation time: 1 hr 28 min 32 sec) 
Heartbeat CPU 0 instructions: 150000003 cycles: 112585893 heartbeat IPC: 1.02581 cumulative IPC: 1.02582 (Simulation time: 1 hr 32 min 14 sec) 
Heartbeat CPU 0 instructions: 160000000 cycles: 122408523 heartbeat IPC: 1.01806 cumulative IPC: 1.02511 (Simulation time: 1 hr 35 min 48 sec) 
Heartbeat CPU 0 instructions: 170000001 cycles: 132186530 heartbeat IPC: 1.0227 cumulative IPC: 1.02491 (Simulation time: 1 hr 40 min 1 sec) 
Heartbeat CPU 0 instructions: 180000002 cycles: 141891657 heartbeat IPC: 1.03038 cumulative IPC: 1.02533 (Simulation time: 1 hr 43 min 18 sec) 
Heartbeat CPU 0 instructions: 190000003 cycles: 151622368 heartbeat IPC: 1.02767 cumulative IPC: 1.02549 (Simulation time: 1 hr 46 min 13 sec) 
Heartbeat CPU 0 instructions: 200000003 cycles: 161344464 heartbeat IPC: 1.02858 cumulative IPC: 1.0257 (Simulation time: 1 hr 48 min 33 sec) 
Heartbeat CPU 0 instructions: 210000002 cycles: 171063769 heartbeat IPC: 1.02888 cumulative IPC: 1.0259 (Simulation time: 1 hr 50 min 35 sec) 
Heartbeat CPU 0 instructions: 220000000 cycles: 180814018 heartbeat IPC: 1.02561 cumulative IPC: 1.02588 (Simulation time: 1 hr 52 min 14 sec) 
Heartbeat CPU 0 instructions: 230000002 cycles: 190542432 heartbeat IPC: 1.02792 cumulative IPC: 1.02599 (Simulation time: 1 hr 53 min 43 sec) 
Heartbeat CPU 0 instructions: 240000002 cycles: 200290420 heartbeat IPC: 1.02585 cumulative IPC: 1.02599 (Simulation time: 1 hr 54 min 59 sec) 
Heartbeat CPU 0 instructions: 250000000 cycles: 210051508 heartbeat IPC: 1.02448 cumulative IPC: 1.02591 (Simulation time: 1 hr 56 min 13 sec) 
Finished CPU 0 instructions: 200000000 cycles: 194948869 cumulative IPC: 1.02591 (Simulation time: 1 hr 56 min 13 sec) 

ChampSim completed all CPUs

Region of Interest Statistics

CPU 0 cumulative IPC: 1.02591 instructions: 200000000 cycles: 194948869
ITLB TOTAL     ACCESS:   30842750  HIT:   30842750  MISS:          0  HIT %:        100  MISS %:          0   MPKI: 0
ITLB LOAD TRANSLATION ACCESS:   30842750  HIT:   30842750  MISS:          0  HIT %:        100  MISS %:          0   MPKI: 0
ITLB PREFETCH  REQUESTED:          0  ISSUED:          0  USEFUL:          0  USELESS:          0
ITLB USEFUL LOAD PREFETCHES:          0 PREFETCH ISSUED TO LOWER LEVEL:          0  ACCURACY: -nan
ITLB TIMELY PREFETCHES:          0 LATE PREFETCHES: 0 DROPPED PREFETCHES: 0
ITLB PREFETCHES SAME FILL-ORIGIN LEVEL: 0 DIFFERENT FILL-ORIGIN LEVEL: 0
ITLB AVERAGE MISS LATENCY: -nan cycles
ITLB RQ	ACCESS:   34580301	FORWARD:          0	MERGED:    3737552	TO_CACHE:   30842749

DTLB TOTAL     ACCESS:   37010612  HIT:   36993330  MISS:      17282  HIT %:    99.9533  MISS %:  0.0466947   MPKI: 0.08641
DTLB LOAD TRANSLATION ACCESS:   37010612  HIT:   36993330  MISS:      17282  HIT %:    99.9533  MISS %:  0.0466947   MPKI: 0.08641
DTLB PREFETCH  REQUESTED:          0  ISSUED:          0  USEFUL:          0  USELESS:          0
DTLB USEFUL LOAD PREFETCHES:          0 PREFETCH ISSUED TO LOWER LEVEL:          0  ACCURACY: -nan
DTLB TIMELY PREFETCHES:          0 LATE PREFETCHES: 0 DROPPED PREFETCHES: 0
DTLB PREFETCHES SAME FILL-ORIGIN LEVEL: 0 DIFFERENT FILL-ORIGIN LEVEL: 0
DTLB AVERAGE MISS LATENCY: 41.6563 cycles
DTLB RQ	ACCESS:   51226633	FORWARD:          0	MERGED:   14215118	TO_CACHE:   37011515

STLB TOTAL     ACCESS:   13364000  HIT:   13359374  MISS:       4626  HIT %:    99.9654  MISS %:  0.0346154   MPKI: 0.02313
STLB LOAD TRANSLATION ACCESS:      17282  HIT:      12674  MISS:       4608  HIT %:    73.3364  MISS %:    26.6636   MPKI: 0.02304
STLB TRANSLATION FROM L1D PREFETCHER ACCESS:   13346718  HIT:   13346700  MISS:         18  HIT %:    99.9999  MISS %: 0.000134865   MPKI: 9e-05
STLB PREFETCH  REQUESTED:          0  ISSUED:          0  USEFUL:         18  USELESS:          0
STLB USEFUL LOAD PREFETCHES:         18 PREFETCH ISSUED TO LOWER LEVEL:          0  ACCURACY: inf
STLB TIMELY PREFETCHES:         18 LATE PREFETCHES: 36 DROPPED PREFETCHES: 329769
STLB PREFETCHES SAME FILL-ORIGIN LEVEL: 0 DIFFERENT FILL-ORIGIN LEVEL: 0
STLB AVERAGE MISS LATENCY: 121.72 cycles
STLB RQ	ACCESS:   51376445	FORWARD:          0	MERGED:   37681317	TO_CACHE:   13695128

STLB Hit, L1D data hit: 0
STLB Hit, L2C data hit: 0
STLB Hit, LLC data hit: 0
STLB Hit, LLC data miss: 0
STLB STLB hints to L2: 0
L1D TOTAL     ACCESS:   88134821  HIT:   86369575  MISS:    1765246  HIT %:    97.9971  MISS %:    2.00289   MPKI: 8.82623
L1D LOAD      ACCESS:   45655479  HIT:   45391733  MISS:     263746  HIT %:    99.4223  MISS %:   0.577688   MPKI: 1.31873
L1D RFO       ACCESS:    5549511  HIT:    5547317  MISS:       2194  HIT %:    99.9605  MISS %:   0.039535   MPKI: 0.01097
L1D PREFETCH  ACCESS:   36929831  HIT:   35430525  MISS:    1499306  HIT %:    95.9401  MISS %:    4.05988   MPKI: 7.49653
L1D PREFETCH  REQUESTED:  111628947  ISSUED:  103561060  USEFUL:    1170174  USELESS:     329283
L1D USEFUL LOAD PREFETCHES:    1170174 PREFETCH ISSUED TO LOWER LEVEL:   15178819  ACCURACY: 7.70926
L1D TIMELY PREFETCHES:    1170174 LATE PREFETCHES: 590 DROPPED PREFETCHES: 715965
L1D PREFETCHES SAME FILL-ORIGIN LEVEL: 1499901 DIFFERENT FILL-ORIGIN LEVEL: 13678918
L1D AVERAGE MISS LATENCY: 19.5294 cycles
L1D RQ	ACCESS:   58744550	FORWARD:          0	MERGED:   13072293	TO_CACHE:   45672056
L1D WQ	ACCESS:    5554577	FORWARD:        205	MERGED:          0	TO_CACHE:    5554577
L1D PQ	ACCESS:   52201897	FORWARD:          0	MERGED:     842730	TO_CACHE:   51359163

L1D UNIQUE REGIONS ACCESSED: 0
L1D REGIONS CONFLICTS: 0
L1D Cross Page Prefetch Requests: 6755404
L1D Same Page Prefetch Requests: 58030400
L1D ROI Sum of L1D PQ occupancy: 772501461
L1D PREFETCHES PUSHED FROM L2C: 0
L1I TOTAL     ACCESS:   34580301  HIT:   34580301  MISS:          0  HIT %:        100  MISS %:          0   MPKI: 0
L1I LOAD      ACCESS:   34580301  HIT:   34580301  MISS:          0  HIT %:        100  MISS %:          0   MPKI: 0
L1I PREFETCH  REQUESTED:          0  ISSUED:          0  USEFUL:          0  USELESS:          0
L1I USEFUL LOAD PREFETCHES:          0 PREFETCH ISSUED TO LOWER LEVEL:          0  ACCURACY: -nan
L1I TIMELY PREFETCHES:          0 LATE PREFETCHES: 0 DROPPED PREFETCHES: 0
L1I PREFETCHES SAME FILL-ORIGIN LEVEL: 0 DIFFERENT FILL-ORIGIN LEVEL: 0
L1I AVERAGE MISS LATENCY: -nan cycles
L1I RQ	ACCESS:   53794066	FORWARD:          0	MERGED:   19213765	TO_CACHE:   34580301

BTB TOTAL     ACCESS:   14722463  HIT:   14722449  MISS:         14  HIT %:    99.9999  MISS %: 9.50928e-05   MPKI: 7e-05
BTB BRANCH_DIRECT_JUMP	ACCESS:       3849  HIT:       3848  MISS:          1
BTB BRANCH_INDIRECT	ACCESS:          0  HIT:          0  MISS:          0
BTB BRANCH_CONDITIONAL	ACCESS:   14718614  HIT:   14718601  MISS:         13
BTB BRANCH_DIRECT_CALL	ACCESS:          0  HIT:          0  MISS:          0
BTB BRANCH_INDIRECT_CALL	ACCESS:          0  HIT:          0  MISS:          0
BTB BRANCH_RETURN	ACCESS:          0  HIT:          0  MISS:          0
BTB BRANCH_OTHER ACCESS:          0  HIT:          0  MISS:          0

L2C TOTAL     ACCESS:   16222453  HIT:   16066541  MISS:     155912  HIT %:    99.0389  MISS %:   0.961088   MPKI: 0.77956
L2C LOAD      ACCESS:     263153  HIT:     253352  MISS:       9801  HIT %:    96.2756  MISS %:    3.72445   MPKI: 0.049005
L2C DATA LOAD MPKI: 0.049005
L2C INSTRUCTION LOAD MPKI: 0
L2C RFO       ACCESS:       2193  HIT:       2193  MISS:          0  HIT %:        100  MISS %:          0   MPKI: 0
L2C PREFETCH  ACCESS:   15148611  HIT:   15003480  MISS:     145131  HIT %:     99.042  MISS %:   0.958048   MPKI: 0.725655
L2C DATA PREFETCH MPKI: 0.725655
L2C INSTRUCTION PREFETCH MPKI: 0
L2C WRITEBACK ACCESS:     474065  HIT:     473890  MISS:        175  HIT %:    99.9631  MISS %:  0.0369148   MPKI: 0.000875
L2C LOAD TRANSLATION ACCESS:       4608  HIT:       4335  MISS:        273  HIT %:    94.0755  MISS %:    5.92448   MPKI: 0.001365
L2C TRANSLATION FROM L1D PREFETCHER ACCESS:     329823  HIT:     329291  MISS:        532  HIT %:    99.8387  MISS %:   0.161299   MPKI: 0.00266
L2C PREFETCH  REQUESTED:          0  ISSUED:          0  USEFUL:       5946  USELESS:     139372
L2C USEFUL LOAD PREFETCHES:       5946 PREFETCH ISSUED TO LOWER LEVEL:     145165  ACCURACY: 4.09603
L2C TIMELY PREFETCHES:       5946 LATE PREFETCHES: 34 DROPPED PREFETCHES: 0
L2C PREFETCHES SAME FILL-ORIGIN LEVEL: 91356 DIFFERENT FILL-ORIGIN LEVEL: 0
L2C AVERAGE MISS LATENCY: 111.166 cycles
L2C RQ	ACCESS:     599780	FORWARD:          0	MERGED:          0	TO_CACHE:     599777
L2C WQ	ACCESS:     474065	FORWARD:         30	MERGED:          0	TO_CACHE:     474065
L2C PQ	ACCESS:   15178810	FORWARD:          0	MERGED:        268	TO_CACHE:   15178515

L2C Instructions Evicting Data 0
L2C Translations Evicting Data 805
L2C Data Evicting Data 154110
L2C Instructions Evicting Instructions 0
L2C Translations Evicting Instructions 0
L2C Data Evicting Instructions 0
L2C Instructions Evicting Translations 0
L2C Translations Evicting Translations 0
L2C Data Evicting Translations 822
L2C Dense regions hint from L2: 0
PSCL5 TOTAL     ACCESS:     334431  HIT:     334431  MISS:          0  HIT %:        100  MISS %:          0   MPKI: 0
PSCL5 LOAD TRANSLATION ACCESS:       4608  HIT:       4608  MISS:          0  HIT %:        100  MISS %:          0   MPKI: 0
PSCL5 TRANSLATION FROM L1D PREFETCHER ACCESS:     329823  HIT:     329823  MISS:          0  HIT %:        100  MISS %:          0   MPKI: 0
PSCL5 PREFETCH  REQUESTED:          0  ISSUED:          0  USEFUL:          0  USELESS:          0
PSCL5 USEFUL LOAD PREFETCHES:          0 PREFETCH ISSUED TO LOWER LEVEL:          0  ACCURACY: -nan
PSCL5 TIMELY PREFETCHES:          0 LATE PREFETCHES: 0 DROPPED PREFETCHES: 0
PSCL5 PREFETCHES SAME FILL-ORIGIN LEVEL: 0 DIFFERENT FILL-ORIGIN LEVEL: 0

PSCL4 TOTAL     ACCESS:     334431  HIT:     334431  MISS:          0  HIT %:        100  MISS %:          0   MPKI: 0
PSCL4 LOAD TRANSLATION ACCESS:       4608  HIT:       4608  MISS:          0  HIT %:        100  MISS %:          0   MPKI: 0
PSCL4 TRANSLATION FROM L1D PREFETCHER ACCESS:     329823  HIT:     329823  MISS:          0  HIT %:        100  MISS %:          0   MPKI: 0
PSCL4 PREFETCH  REQUESTED:          0  ISSUED:          0  USEFUL:          0  USELESS:          0
PSCL4 USEFUL LOAD PREFETCHES:          0 PREFETCH ISSUED TO LOWER LEVEL:          0  ACCURACY: -nan
PSCL4 TIMELY PREFETCHES:          0 LATE PREFETCHES: 0 DROPPED PREFETCHES: 0
PSCL4 PREFETCHES SAME FILL-ORIGIN LEVEL: 0 DIFFERENT FILL-ORIGIN LEVEL: 0

PSCL3 TOTAL     ACCESS:     334431  HIT:     334431  MISS:          0  HIT %:        100  MISS %:          0   MPKI: 0
PSCL3 LOAD TRANSLATION ACCESS:       4608  HIT:       4608  MISS:          0  HIT %:        100  MISS %:          0   MPKI: 0
PSCL3 TRANSLATION FROM L1D PREFETCHER ACCESS:     329823  HIT:     329823  MISS:          0  HIT %:        100  MISS %:          0   MPKI: 0
PSCL3 PREFETCH  REQUESTED:          0  ISSUED:          0  USEFUL:          0  USELESS:          0
PSCL3 USEFUL LOAD PREFETCHES:          0 PREFETCH ISSUED TO LOWER LEVEL:          0  ACCURACY: -nan
PSCL3 TIMELY PREFETCHES:          0 LATE PREFETCHES: 0 DROPPED PREFETCHES: 0
PSCL3 PREFETCHES SAME FILL-ORIGIN LEVEL: 0 DIFFERENT FILL-ORIGIN LEVEL: 0

PSCL2 TOTAL     ACCESS:     333985  HIT:     333974  MISS:         11  HIT %:    99.9967  MISS %: 0.00329356   MPKI: 5.5e-05
PSCL2 LOAD TRANSLATION ACCESS:       4608  HIT:       4597  MISS:         11  HIT %:    99.7613  MISS %:   0.238715   MPKI: 5.5e-05
PSCL2 TRANSLATION FROM L1D PREFETCHER ACCESS:     329377  HIT:     329377  MISS:          0  HIT %:        100  MISS %:          0   MPKI: 0
PSCL2 PREFETCH  REQUESTED:          0  ISSUED:          0  USEFUL:          0  USELESS:          0
PSCL2 USEFUL LOAD PREFETCHES:          0 PREFETCH ISSUED TO LOWER LEVEL:          0  ACCURACY: -nan
PSCL2 TIMELY PREFETCHES:          0 LATE PREFETCHES: 0 DROPPED PREFETCHES: 0
PSCL2 PREFETCHES SAME FILL-ORIGIN LEVEL: 0 DIFFERENT FILL-ORIGIN LEVEL: 0

LLC TOTAL     ACCESS:     158486  HIT:       8736  MISS:     149750  HIT %:    5.51216  MISS %:    94.4878   MPKI: 0.74875
LLC LOAD      ACCESS:       9767  HIT:        716  MISS:       9051  HIT %:    7.33081  MISS %:    92.6692   MPKI: 0.045255
LLC PREFETCH  ACCESS:     145165  HIT:       6178  MISS:     138987  HIT %:    4.25585  MISS %:    95.7442   MPKI: 0.694935
LLC WRITEBACK ACCESS:       2749  HIT:       1777  MISS:        972  HIT %:    64.6417  MISS %:    35.3583   MPKI: 0.00486
LLC LOAD TRANSLATION ACCESS:        273  HIT:         36  MISS:        237  HIT %:    13.1868  MISS %:    86.8132   MPKI: 0.001185
LLC TRANSLATION FROM L1D PREFETCHER ACCESS:        532  HIT:         29  MISS:        503  HIT %:    5.45113  MISS %:    94.5489   MPKI: 0.002515
LLC PREFETCH  REQUESTED:          0  ISSUED:          0  USEFUL:        444  USELESS:     139038
LLC USEFUL LOAD PREFETCHES:        444 PREFETCH ISSUED TO LOWER LEVEL:     138987  ACCURACY: 0.319454
LLC TIMELY PREFETCHES:        444 LATE PREFETCHES: 0 DROPPED PREFETCHES: 0
LLC PREFETCHES SAME FILL-ORIGIN LEVEL: 0 DIFFERENT FILL-ORIGIN LEVEL: 0
LLC AVERAGE MISS LATENCY: 84.4615 cycles
LLC RQ	ACCESS:      10572	FORWARD:          0	MERGED:          0	TO_CACHE:      10572
LLC WQ	ACCESS:       2749	FORWARD:          0	MERGED:          0	TO_CACHE:       2749
LLC PQ	ACCESS:     145165	FORWARD:          0	MERGED:          0	TO_CACHE:     145165

LLC Dense regions hint to LLC: 0

RAW hits: 3179
Loads Generated: 58747734
Loads sent to L1D: 58744550
Stores Generated: 5554575
Stores sent to L1D: 5554577
Major fault: 0 Minor fault: 5932
Allocated PAGES: 5932

DRAM Statistics
 CHANNEL 0
 RQ ROW_BUFFER_HIT:     129163  ROW_BUFFER_MISS:      19615
 DBUS_CONGESTED:          3
 WQ ROW_BUFFER_HIT:          9  ROW_BUFFER_MISS:       1054  FULL:          0

 AVG_CONGESTED_CYCLE: 4
 All warmup complete: 2
Channel 0 Bank busy for read cycles: 0
Channel 0 Bank busy for write cycles: 0
Channel 0
Rank 0
0banks busy for read cycles: 187377784
0banks busy for write cycles: 1010
1banks busy for read cycles: 6629733
1banks busy for write cycles: 148916
2banks busy for read cycles: 379508
2banks busy for write cycles: 4919
3banks busy for read cycles: 107973
3banks busy for write cycles: 816
4banks busy for read cycles: 116198
4banks busy for write cycles: 295
5banks busy for read cycles: 42801
5banks busy for write cycles: 131
6banks busy for read cycles: 31820
6banks busy for write cycles: 0
7banks busy for read cycles: 37663
7banks busy for write cycles: 0
8banks busy for read cycles: 69303
8banks busy for write cycles: 0

CPU 0 Branch Prediction Accuracy: 99.9489% MPKI: 0.051735 Average ROB Occupancy at Mispredict: 196.221
Branch types
NOT_BRANCH: 179758375 89.8792%
BRANCH_DIRECT_JUMP: 3849 0.0019245%
BRANCH_INDIRECT: 0 0%
BRANCH_CONDITIONAL: 20237781 10.1189%
BRANCH_DIRECT_CALL: 0 0%
BRANCH_INDIRECT_CALL: 0 0%
BRANCH_RETURN: 0 0%
BRANCH_OTHER: 0 0%

DRAM PAGES: 1048576
Allocated PAGES: 5932
