526208 bits of metadata so far, 405638 left out of 526336 total budget
table size is 13521 bits, 2253 entries for 5 bit, 1931 entries for 6 bit
526208 total bits (64.23KB)

*** ChampSim Multicore Out-of-Order Simulator ***

Warmup Instructions: 50000000
Simulation Instructions: 200000000
Number of CPUs: 1
LLC sets: 2048
LLC ways: 16
Off-chip DRAM Size: 4096 MB Channels: 1 Width: 64-bit Data Rate: 6400 MT/s
argv[0]: ./ChampSim/Berti/bin/multiperspective_perceptron-no-vberti-no-no-no-no-no-lru-lru-lru-srrip-drrip-lru-lru-lru-1core-no
argv[1]: -warmup_instructions
argv[2]: 50000000
argv[3]: -simulation_instructions
argv[4]: 200000000
argv[5]: -traces
argv[6]: traces/spec2k17_ten/644.nab_s-5853B.champsimtrace.xz
CPU 0 runs traces/spec2k17_ten/644.nab_s-5853B.champsimtrace.xz
.xz
CPU 0 Multiperspective perceptron branch predictor
BTB has LRU replacement policy
ITLB has LRU replacement policy
DTLB has LRU replacement policy
STLB has LRU replacement policy
L1I has LRU replacement policy
History Sets: 8
History Ways: 16
BERTI Size: 16
BERTI Stride Size: 16
L1D has LRU replacement policy
Initialize SRRIP state for L2C
Initialize DRRIP state for LLC
Heartbeat CPU 0 instructions: 10000002 cycles: 3238330 heartbeat IPC: 3.08801 cumulative IPC: 3.08801 (Simulation time: 0 hr 7 min 7 sec) 
Heartbeat CPU 0 instructions: 20000001 cycles: 6476526 heartbeat IPC: 3.08814 cumulative IPC: 3.08808 (Simulation time: 0 hr 13 min 27 sec) 
Heartbeat CPU 0 instructions: 30000000 cycles: 9710824 heartbeat IPC: 3.09186 cumulative IPC: 3.08934 (Simulation time: 0 hr 16 min 37 sec) 
Heartbeat CPU 0 instructions: 40000001 cycles: 12924414 heartbeat IPC: 3.11178 cumulative IPC: 3.09492 (Simulation time: 0 hr 20 min 42 sec) 
Heartbeat CPU 0 instructions: 50000001 cycles: 16141310 heartbeat IPC: 3.10859 cumulative IPC: 3.09764 (Simulation time: 0 hr 25 min 41 sec) 

Warmup complete CPU 0 instructions: 50000001 cycles: 16141310 (Simulation time: 0 hr 25 min 41 sec) 

Heartbeat CPU 0 instructions: 60000000 cycles: 30833473 heartbeat IPC: 0.680635 cumulative IPC: 0.680635 (Simulation time: 0 hr 31 min 11 sec) 
Heartbeat CPU 0 instructions: 70000000 cycles: 45485070 heartbeat IPC: 0.682519 cumulative IPC: 0.681576 (Simulation time: 0 hr 36 min 49 sec) 
Heartbeat CPU 0 instructions: 80000003 cycles: 60138344 heartbeat IPC: 0.682442 cumulative IPC: 0.681864 (Simulation time: 0 hr 41 min 56 sec) 
Heartbeat CPU 0 instructions: 90000000 cycles: 74808737 heartbeat IPC: 0.681645 cumulative IPC: 0.681809 (Simulation time: 0 hr 46 min 56 sec) 
Heartbeat CPU 0 instructions: 100000001 cycles: 89456879 heartbeat IPC: 0.68268 cumulative IPC: 0.681983 (Simulation time: 0 hr 52 min 16 sec) 
Heartbeat CPU 0 instructions: 110000000 cycles: 104105569 heartbeat IPC: 0.682655 cumulative IPC: 0.682095 (Simulation time: 0 hr 57 min 2 sec) 
Heartbeat CPU 0 instructions: 120000001 cycles: 118754907 heartbeat IPC: 0.682625 cumulative IPC: 0.682171 (Simulation time: 1 hr 2 min 16 sec) 
Heartbeat CPU 0 instructions: 130000003 cycles: 133389429 heartbeat IPC: 0.683316 cumulative IPC: 0.682314 (Simulation time: 1 hr 7 min 20 sec) 
Heartbeat CPU 0 instructions: 140000001 cycles: 148019492 heartbeat IPC: 0.683524 cumulative IPC: 0.682448 (Simulation time: 1 hr 12 min 43 sec) 
Heartbeat CPU 0 instructions: 150000002 cycles: 162654640 heartbeat IPC: 0.683287 cumulative IPC: 0.682532 (Simulation time: 1 hr 17 min 56 sec) 
Heartbeat CPU 0 instructions: 160000000 cycles: 177299483 heartbeat IPC: 0.682834 cumulative IPC: 0.682559 (Simulation time: 1 hr 23 min 1 sec) 
Heartbeat CPU 0 instructions: 170000003 cycles: 191952577 heartbeat IPC: 0.68245 cumulative IPC: 0.68255 (Simulation time: 1 hr 27 min 17 sec) 
Heartbeat CPU 0 instructions: 180000002 cycles: 206591512 heartbeat IPC: 0.68311 cumulative IPC: 0.682593 (Simulation time: 1 hr 31 min 16 sec) 
Heartbeat CPU 0 instructions: 190000000 cycles: 221231955 heartbeat IPC: 0.683039 cumulative IPC: 0.682625 (Simulation time: 1 hr 35 min 2 sec) 
Heartbeat CPU 0 instructions: 200000002 cycles: 235869512 heartbeat IPC: 0.683174 cumulative IPC: 0.682662 (Simulation time: 1 hr 38 min 6 sec) 
Heartbeat CPU 0 instructions: 210000003 cycles: 250503456 heartbeat IPC: 0.683343 cumulative IPC: 0.682704 (Simulation time: 1 hr 41 min 3 sec) 
Heartbeat CPU 0 instructions: 220000000 cycles: 265143561 heartbeat IPC: 0.683055 cumulative IPC: 0.682725 (Simulation time: 1 hr 44 min 5 sec) 
Heartbeat CPU 0 instructions: 230000000 cycles: 279781108 heartbeat IPC: 0.683175 cumulative IPC: 0.68275 (Simulation time: 1 hr 46 min 40 sec) 
Heartbeat CPU 0 instructions: 240000002 cycles: 294423141 heartbeat IPC: 0.682965 cumulative IPC: 0.682761 (Simulation time: 1 hr 48 min 57 sec) 
Heartbeat CPU 0 instructions: 250000003 cycles: 309076776 heartbeat IPC: 0.682425 cumulative IPC: 0.682744 (Simulation time: 1 hr 50 min 45 sec) 
Finished CPU 0 instructions: 200000002 cycles: 292935466 cumulative IPC: 0.682744 (Simulation time: 1 hr 50 min 45 sec) 

ChampSim completed all CPUs

Region of Interest Statistics

CPU 0 cumulative IPC: 0.682744 instructions: 200000002 cycles: 292935466
ITLB TOTAL     ACCESS:   28741293  HIT:   28741293  MISS:          0  HIT %:        100  MISS %:          0   MPKI: 0
ITLB LOAD TRANSLATION ACCESS:   28741293  HIT:   28741293  MISS:          0  HIT %:        100  MISS %:          0   MPKI: 0
ITLB PREFETCH  REQUESTED:          0  ISSUED:          0  USEFUL:          0  USELESS:          0
ITLB USEFUL LOAD PREFETCHES:          0 PREFETCH ISSUED TO LOWER LEVEL:          0  ACCURACY: -nan
ITLB TIMELY PREFETCHES:          0 LATE PREFETCHES: 0 DROPPED PREFETCHES: 0
ITLB PREFETCHES SAME FILL-ORIGIN LEVEL: 0 DIFFERENT FILL-ORIGIN LEVEL: 0
ITLB AVERAGE MISS LATENCY: -nan cycles
ITLB RQ	ACCESS:   35933438	FORWARD:          0	MERGED:    7192146	TO_CACHE:   28741292

DTLB TOTAL     ACCESS:   49790219  HIT:   49720893  MISS:      69326  HIT %:    99.8608  MISS %:   0.139236   MPKI: 0.34663
DTLB LOAD TRANSLATION ACCESS:   49790219  HIT:   49720893  MISS:      69326  HIT %:    99.8608  MISS %:   0.139236   MPKI: 0.34663
DTLB PREFETCH  REQUESTED:          0  ISSUED:          0  USEFUL:          0  USELESS:          0
DTLB USEFUL LOAD PREFETCHES:          0 PREFETCH ISSUED TO LOWER LEVEL:          0  ACCURACY: -nan
DTLB TIMELY PREFETCHES:          0 LATE PREFETCHES: 0 DROPPED PREFETCHES: 0
DTLB PREFETCHES SAME FILL-ORIGIN LEVEL: 0 DIFFERENT FILL-ORIGIN LEVEL: 0
DTLB AVERAGE MISS LATENCY: 11.9637 cycles
DTLB RQ	ACCESS:   64967203	FORWARD:          0	MERGED:   15176031	TO_CACHE:   49791172

STLB TOTAL     ACCESS:    5458044  HIT:    5456659  MISS:       1385  HIT %:    99.9746  MISS %:  0.0253754   MPKI: 0.006925
STLB LOAD TRANSLATION ACCESS:      69326  HIT:      67941  MISS:       1385  HIT %:    98.0022  MISS %:    1.99781   MPKI: 0.006925
STLB TRANSLATION FROM L1D PREFETCHER ACCESS:    5388718  HIT:    5388718  MISS:          0  HIT %:        100  MISS %:          0   MPKI: 0
STLB PREFETCH  REQUESTED:          0  ISSUED:          0  USEFUL:          0  USELESS:          0
STLB USEFUL LOAD PREFETCHES:          0 PREFETCH ISSUED TO LOWER LEVEL:          0  ACCURACY: -nan
STLB TIMELY PREFETCHES:          0 LATE PREFETCHES: 0 DROPPED PREFETCHES: 197817
STLB PREFETCHES SAME FILL-ORIGIN LEVEL: 0 DIFFERENT FILL-ORIGIN LEVEL: 0
STLB AVERAGE MISS LATENCY: 143.558 cycles
STLB RQ	ACCESS:   25149789	FORWARD:          0	MERGED:   19493918	TO_CACHE:    5655871

STLB Hit, L1D data hit: 0
STLB Hit, L2C data hit: 0
STLB Hit, LLC data hit: 0
STLB Hit, LLC data miss: 0
STLB STLB hints to L2: 0
L1D TOTAL     ACCESS:   79679725  HIT:   78597069  MISS:    1082656  HIT %:    98.6412  MISS %:    1.35876   MPKI: 5.41328
L1D LOAD      ACCESS:   42814883  HIT:   42553304  MISS:     261579  HIT %:     99.389  MISS %:   0.610953   MPKI: 1.30789
L1D RFO       ACCESS:   22116380  HIT:   22115087  MISS:       1293  HIT %:    99.9942  MISS %: 0.00584635   MPKI: 0.006465
L1D PREFETCH  ACCESS:   14748462  HIT:   13928678  MISS:     819784  HIT %:    94.4416  MISS %:    5.55844   MPKI: 4.09892
L1D PREFETCH  REQUESTED:   55226614  ISSUED:   50408069  USEFUL:     647839  USELESS:     171951
L1D USEFUL LOAD PREFETCHES:     647839 PREFETCH ISSUED TO LOWER LEVEL:   10672430  ACCURACY: 6.07021
L1D TIMELY PREFETCHES:     647839 LATE PREFETCHES: 0 DROPPED PREFETCHES: 468553
L1D PREFETCHES SAME FILL-ORIGIN LEVEL: 819784 DIFFERENT FILL-ORIGIN LEVEL: 9852646
L1D AVERAGE MISS LATENCY: 17.6116 cycles
L1D RQ	ACCESS:   53418380	FORWARD:          0	MERGED:    9829583	TO_CACHE:   42847998
L1D WQ	ACCESS:   22673120	FORWARD:     740799	MERGED:     553915	TO_CACHE:   22119205
L1D PQ	ACCESS:   25327606	FORWARD:          0	MERGED:     247143	TO_CACHE:   25080463

L1D UNIQUE REGIONS ACCESSED: 0
L1D REGIONS CONFLICTS: 0
L1D Cross Page Prefetch Requests: 2656012
L1D Same Page Prefetch Requests: 28524038
L1D ROI Sum of L1D PQ occupancy: 397411963
L1D PREFETCHES PUSHED FROM L2C: 0
L1I TOTAL     ACCESS:   35933437  HIT:   35933437  MISS:          0  HIT %:        100  MISS %:          0   MPKI: 0
L1I LOAD      ACCESS:   35933437  HIT:   35933437  MISS:          0  HIT %:        100  MISS %:          0   MPKI: 0
L1I PREFETCH  REQUESTED:          0  ISSUED:          0  USEFUL:          0  USELESS:          0
L1I USEFUL LOAD PREFETCHES:          0 PREFETCH ISSUED TO LOWER LEVEL:          0  ACCURACY: -nan
L1I TIMELY PREFETCHES:          0 LATE PREFETCHES: 0 DROPPED PREFETCHES: 0
L1I PREFETCHES SAME FILL-ORIGIN LEVEL: 0 DIFFERENT FILL-ORIGIN LEVEL: 0
L1I AVERAGE MISS LATENCY: -nan cycles
L1I RQ	ACCESS:   50858636	FORWARD:          0	MERGED:   14925198	TO_CACHE:   35933438

BTB TOTAL     ACCESS:   14896356  HIT:   13790383  MISS:    1105973  HIT %:    92.5755  MISS %:    7.42445   MPKI: 5.52986
BTB BRANCH_DIRECT_JUMP	ACCESS:    1660136  HIT:    1660105  MISS:         31
BTB BRANCH_INDIRECT	ACCESS:         60  HIT:         59  MISS:          1
BTB BRANCH_CONDITIONAL	ACCESS:    8813407  HIT:    8813314  MISS:         93
BTB BRANCH_DIRECT_CALL	ACCESS:    2211376  HIT:    2211332  MISS:         44
BTB BRANCH_INDIRECT_CALL	ACCESS:          0  HIT:          0  MISS:          0
BTB BRANCH_RETURN	ACCESS:    2211377  HIT:    1105573  MISS:    1105804
BTB BRANCH_OTHER ACCESS:          0  HIT:          0  MISS:          0

L2C TOTAL     ACCESS:   11436645  HIT:   11385300  MISS:      51345  HIT %:     99.551  MISS %:   0.448952   MPKI: 0.256725
L2C LOAD      ACCESS:     261578  HIT:     258471  MISS:       3107  HIT %:    98.8122  MISS %:    1.18779   MPKI: 0.015535
L2C DATA LOAD MPKI: 0.015535
L2C INSTRUCTION LOAD MPKI: 0
L2C RFO       ACCESS:       1293  HIT:       1199  MISS:         94  HIT %:    92.7301  MISS %:    7.26991   MPKI: 0.00047
L2C PREFETCH  ACCESS:   10672363  HIT:   10624713  MISS:      47650  HIT %:    99.5535  MISS %:    0.44648   MPKI: 0.23825
L2C DATA PREFETCH MPKI: 0.23825
L2C INSTRUCTION PREFETCH MPKI: 0
L2C WRITEBACK ACCESS:     297048  HIT:     297043  MISS:          5  HIT %:    99.9983  MISS %: 0.00168323   MPKI: 2.5e-05
L2C LOAD TRANSLATION ACCESS:       1401  HIT:       1089  MISS:        312  HIT %:    77.7302  MISS %:    22.2698   MPKI: 0.00156
L2C TRANSLATION FROM L1D PREFETCHER ACCESS:     202962  HIT:     202785  MISS:        177  HIT %:    99.9128  MISS %:  0.0872084   MPKI: 0.000885
L2C PREFETCH  REQUESTED:          0  ISSUED:          0  USEFUL:       2577  USELESS:      46047
L2C USEFUL LOAD PREFETCHES:       2577 PREFETCH ISSUED TO LOWER LEVEL:      47650  ACCURACY: 5.40818
L2C TIMELY PREFETCHES:       2577 LATE PREFETCHES: 0 DROPPED PREFETCHES: 0
L2C PREFETCHES SAME FILL-ORIGIN LEVEL: 30234 DIFFERENT FILL-ORIGIN LEVEL: 0
L2C AVERAGE MISS LATENCY: 117.362 cycles
L2C RQ	ACCESS:     467235	FORWARD:          0	MERGED:          0	TO_CACHE:     467234
L2C WQ	ACCESS:     297048	FORWARD:         30	MERGED:          0	TO_CACHE:     297048
L2C PQ	ACCESS:   10672430	FORWARD:          0	MERGED:          1	TO_CACHE:   10672400

L2C Instructions Evicting Data 0
L2C Translations Evicting Data 487
L2C Data Evicting Data 50290
L2C Instructions Evicting Instructions 0
L2C Translations Evicting Instructions 0
L2C Data Evicting Instructions 0
L2C Instructions Evicting Translations 0
L2C Translations Evicting Translations 2
L2C Data Evicting Translations 561
L2C Dense regions hint from L2: 0
PSCL5 TOTAL     ACCESS:     199202  HIT:     199202  MISS:          0  HIT %:        100  MISS %:          0   MPKI: 0
PSCL5 LOAD TRANSLATION ACCESS:       1385  HIT:       1385  MISS:          0  HIT %:        100  MISS %:          0   MPKI: 0
PSCL5 TRANSLATION FROM L1D PREFETCHER ACCESS:     197817  HIT:     197817  MISS:          0  HIT %:        100  MISS %:          0   MPKI: 0
PSCL5 PREFETCH  REQUESTED:          0  ISSUED:          0  USEFUL:          0  USELESS:          0
PSCL5 USEFUL LOAD PREFETCHES:          0 PREFETCH ISSUED TO LOWER LEVEL:          0  ACCURACY: -nan
PSCL5 TIMELY PREFETCHES:          0 LATE PREFETCHES: 0 DROPPED PREFETCHES: 0
PSCL5 PREFETCHES SAME FILL-ORIGIN LEVEL: 0 DIFFERENT FILL-ORIGIN LEVEL: 0

PSCL4 TOTAL     ACCESS:     199202  HIT:     199202  MISS:          0  HIT %:        100  MISS %:          0   MPKI: 0
PSCL4 LOAD TRANSLATION ACCESS:       1385  HIT:       1385  MISS:          0  HIT %:        100  MISS %:          0   MPKI: 0
PSCL4 TRANSLATION FROM L1D PREFETCHER ACCESS:     197817  HIT:     197817  MISS:          0  HIT %:        100  MISS %:          0   MPKI: 0
PSCL4 PREFETCH  REQUESTED:          0  ISSUED:          0  USEFUL:          0  USELESS:          0
PSCL4 USEFUL LOAD PREFETCHES:          0 PREFETCH ISSUED TO LOWER LEVEL:          0  ACCURACY: -nan
PSCL4 TIMELY PREFETCHES:          0 LATE PREFETCHES: 0 DROPPED PREFETCHES: 0
PSCL4 PREFETCHES SAME FILL-ORIGIN LEVEL: 0 DIFFERENT FILL-ORIGIN LEVEL: 0

PSCL3 TOTAL     ACCESS:     199202  HIT:     199202  MISS:          0  HIT %:        100  MISS %:          0   MPKI: 0
PSCL3 LOAD TRANSLATION ACCESS:       1385  HIT:       1385  MISS:          0  HIT %:        100  MISS %:          0   MPKI: 0
PSCL3 TRANSLATION FROM L1D PREFETCHER ACCESS:     197817  HIT:     197817  MISS:          0  HIT %:        100  MISS %:          0   MPKI: 0
PSCL3 PREFETCH  REQUESTED:          0  ISSUED:          0  USEFUL:          0  USELESS:          0
PSCL3 USEFUL LOAD PREFETCHES:          0 PREFETCH ISSUED TO LOWER LEVEL:          0  ACCURACY: -nan
PSCL3 TIMELY PREFETCHES:          0 LATE PREFETCHES: 0 DROPPED PREFETCHES: 0
PSCL3 PREFETCHES SAME FILL-ORIGIN LEVEL: 0 DIFFERENT FILL-ORIGIN LEVEL: 0

PSCL2 TOTAL     ACCESS:     193076  HIT:     193050  MISS:         26  HIT %:    99.9865  MISS %:  0.0134662   MPKI: 0.00013
PSCL2 LOAD TRANSLATION ACCESS:       1385  HIT:       1359  MISS:         26  HIT %:    98.1227  MISS %:    1.87726   MPKI: 0.00013
PSCL2 TRANSLATION FROM L1D PREFETCHER ACCESS:     191691  HIT:     191691  MISS:          0  HIT %:        100  MISS %:          0   MPKI: 0
PSCL2 PREFETCH  REQUESTED:          0  ISSUED:          0  USEFUL:          0  USELESS:          0
PSCL2 USEFUL LOAD PREFETCHES:          0 PREFETCH ISSUED TO LOWER LEVEL:          0  ACCURACY: -nan
PSCL2 TIMELY PREFETCHES:          0 LATE PREFETCHES: 0 DROPPED PREFETCHES: 0
PSCL2 PREFETCHES SAME FILL-ORIGIN LEVEL: 0 DIFFERENT FILL-ORIGIN LEVEL: 0

LLC TOTAL     ACCESS:      52089  HIT:       2854  MISS:      49235  HIT %:    5.47908  MISS %:    94.5209   MPKI: 0.246175
LLC LOAD      ACCESS:       3107  HIT:        217  MISS:       2890  HIT %:    6.98423  MISS %:    93.0158   MPKI: 0.01445
LLC RFO       ACCESS:         94  HIT:         84  MISS:         10  HIT %:    89.3617  MISS %:    10.6383   MPKI: 5e-05
LLC PREFETCH  ACCESS:      47650  HIT:       1863  MISS:      45787  HIT %:    3.90976  MISS %:    96.0902   MPKI: 0.228935
LLC WRITEBACK ACCESS:        749  HIT:        511  MISS:        238  HIT %:    68.2243  MISS %:    31.7757   MPKI: 0.00119
LLC LOAD TRANSLATION ACCESS:        312  HIT:        129  MISS:        183  HIT %:    41.3462  MISS %:    58.6538   MPKI: 0.000915
LLC TRANSLATION FROM L1D PREFETCHER ACCESS:        177  HIT:         50  MISS:        127  HIT %:    28.2486  MISS %:    71.7514   MPKI: 0.000635
LLC PREFETCH  REQUESTED:          0  ISSUED:          0  USEFUL:        126  USELESS:      28502
LLC USEFUL LOAD PREFETCHES:        126 PREFETCH ISSUED TO LOWER LEVEL:      45787  ACCURACY: 0.275187
LLC TIMELY PREFETCHES:        126 LATE PREFETCHES: 0 DROPPED PREFETCHES: 0
LLC PREFETCHES SAME FILL-ORIGIN LEVEL: 0 DIFFERENT FILL-ORIGIN LEVEL: 0
LLC AVERAGE MISS LATENCY: 90.9697 cycles
LLC RQ	ACCESS:       3690	FORWARD:          0	MERGED:          0	TO_CACHE:       3690
LLC WQ	ACCESS:        749	FORWARD:          0	MERGED:          0	TO_CACHE:        749
LLC PQ	ACCESS:      47650	FORWARD:          0	MERGED:          0	TO_CACHE:      47650

LLC Dense regions hint to LLC: 0

RAW hits: 4032936
Loads Generated: 57451317
Loads sent to L1D: 53418380
Stores Generated: 22673113
Stores sent to L1D: 22673120
Major fault: 0 Minor fault: 1933
Allocated PAGES: 1933

DRAM Statistics
 CHANNEL 0
 RQ ROW_BUFFER_HIT:      41936  ROW_BUFFER_MISS:       7061
 DBUS_CONGESTED:          0
 WQ ROW_BUFFER_HIT:          0  ROW_BUFFER_MISS:        159  FULL:          0

 AVG_CONGESTED_CYCLE: -
 All warmup complete: 2
Channel 0 Bank busy for read cycles: 0
Channel 0 Bank busy for write cycles: 0
Channel 0
Rank 0
0banks busy for read cycles: 290836222
0banks busy for write cycles: 143
1banks busy for read cycles: 1480828
1banks busy for write cycles: 19701
2banks busy for read cycles: 352076
2banks busy for write cycles: 1719
3banks busy for read cycles: 134773
3banks busy for write cycles: 296
4banks busy for read cycles: 31427
4banks busy for write cycles: 0
5banks busy for read cycles: 37498
5banks busy for write cycles: 0
6banks busy for read cycles: 34654
6banks busy for write cycles: 0
7banks busy for read cycles: 3506
7banks busy for write cycles: 0
8banks busy for read cycles: 2624
8banks busy for write cycles: 0

CPU 0 Branch Prediction Accuracy: 99.9808% MPKI: 0.012755 Average ROB Occupancy at Mispredict: 41.6805
Branch types
NOT_BRANCH: 180640190 90.3201%
BRANCH_DIRECT_JUMP: 1660136 0.830068%
BRANCH_INDIRECT: 60 3e-05%
BRANCH_CONDITIONAL: 13276553 6.63828%
BRANCH_DIRECT_CALL: 2211376 1.10569%
BRANCH_INDIRECT_CALL: 0 0%
BRANCH_RETURN: 2211377 1.10569%
BRANCH_OTHER: 0 0%

DRAM PAGES: 1048576
Allocated PAGES: 1933
