526208 bits of metadata so far, 405638 left out of 526336 total budget
table size is 13521 bits, 2253 entries for 5 bit, 1931 entries for 6 bit
526208 total bits (64.23KB)

*** ChampSim Multicore Out-of-Order Simulator ***

Warmup Instructions: 50000000
Simulation Instructions: 200000000
Number of CPUs: 1
LLC sets: 2048
LLC ways: 16
Off-chip DRAM Size: 4096 MB Channels: 1 Width: 64-bit Data Rate: 6400 MT/s
argv[0]: ./ChampSim/Berti/bin/multiperspective_perceptron-no-vberti-no-no-no-no-no-lru-lru-lru-srrip-drrip-lru-lru-lru-1core-no
argv[1]: -warmup_instructions
argv[2]: 50000000
argv[3]: -simulation_instructions
argv[4]: 200000000
argv[5]: -traces
argv[6]: traces/spec2k17_ten/644.nab_s-9322B.champsimtrace.xz
CPU 0 runs traces/spec2k17_ten/644.nab_s-9322B.champsimtrace.xz
.xz
CPU 0 Multiperspective perceptron branch predictor
BTB has LRU replacement policy
ITLB has LRU replacement policy
DTLB has LRU replacement policy
STLB has LRU replacement policy
L1I has LRU replacement policy
History Sets: 8
History Ways: 16
BERTI Size: 16
BERTI Stride Size: 16
L1D has LRU replacement policy
Initialize SRRIP state for L2C
Initialize DRRIP state for LLC
Heartbeat CPU 0 instructions: 10000002 cycles: 3462856 heartbeat IPC: 2.88779 cumulative IPC: 2.88779 (Simulation time: 0 hr 1 min 55 sec) 
Heartbeat CPU 0 instructions: 20000003 cycles: 6926342 heartbeat IPC: 2.88726 cumulative IPC: 2.88753 (Simulation time: 0 hr 11 min 2 sec) 
Heartbeat CPU 0 instructions: 30000002 cycles: 10387022 heartbeat IPC: 2.88961 cumulative IPC: 2.88822 (Simulation time: 0 hr 18 min 18 sec) 
Heartbeat CPU 0 instructions: 40000001 cycles: 13847179 heartbeat IPC: 2.89004 cumulative IPC: 2.88867 (Simulation time: 0 hr 25 min 17 sec) 
Heartbeat CPU 0 instructions: 50000003 cycles: 17308990 heartbeat IPC: 2.88866 cumulative IPC: 2.88867 (Simulation time: 0 hr 31 min 41 sec) 

Warmup complete CPU 0 instructions: 50000003 cycles: 17308990 (Simulation time: 0 hr 31 min 41 sec) 

Heartbeat CPU 0 instructions: 60000000 cycles: 32585692 heartbeat IPC: 0.654591 cumulative IPC: 0.654591 (Simulation time: 0 hr 38 min 52 sec) 
Heartbeat CPU 0 instructions: 70000000 cycles: 47818824 heartbeat IPC: 0.656464 cumulative IPC: 0.655526 (Simulation time: 0 hr 46 min 21 sec) 
Heartbeat CPU 0 instructions: 80000000 cycles: 63052191 heartbeat IPC: 0.656454 cumulative IPC: 0.655835 (Simulation time: 0 hr 54 min 1 sec) 
Heartbeat CPU 0 instructions: 90000000 cycles: 78318321 heartbeat IPC: 0.655045 cumulative IPC: 0.655637 (Simulation time: 1 hr 1 min 34 sec) 
Heartbeat CPU 0 instructions: 100000002 cycles: 93603670 heartbeat IPC: 0.654221 cumulative IPC: 0.655354 (Simulation time: 1 hr 9 min 22 sec) 
Heartbeat CPU 0 instructions: 110000000 cycles: 108847162 heartbeat IPC: 0.656018 cumulative IPC: 0.655464 (Simulation time: 1 hr 17 min 22 sec) 
Heartbeat CPU 0 instructions: 120000000 cycles: 124127601 heartbeat IPC: 0.654431 cumulative IPC: 0.655316 (Simulation time: 1 hr 24 min 12 sec) 
Heartbeat CPU 0 instructions: 130000000 cycles: 139379334 heartbeat IPC: 0.655663 cumulative IPC: 0.65536 (Simulation time: 1 hr 30 min 31 sec) 
Heartbeat CPU 0 instructions: 140000000 cycles: 154602277 heartbeat IPC: 0.656903 cumulative IPC: 0.655531 (Simulation time: 1 hr 35 min 46 sec) 
Heartbeat CPU 0 instructions: 150000001 cycles: 169916906 heartbeat IPC: 0.65297 cumulative IPC: 0.655274 (Simulation time: 1 hr 40 min 6 sec) 
Heartbeat CPU 0 instructions: 160000001 cycles: 185205225 heartbeat IPC: 0.654094 cumulative IPC: 0.655167 (Simulation time: 1 hr 43 min 50 sec) 
Heartbeat CPU 0 instructions: 170000003 cycles: 200464264 heartbeat IPC: 0.655349 cumulative IPC: 0.655182 (Simulation time: 1 hr 47 min 23 sec) 
Heartbeat CPU 0 instructions: 180000001 cycles: 215762688 heartbeat IPC: 0.653662 cumulative IPC: 0.655065 (Simulation time: 1 hr 49 min 50 sec) 
Heartbeat CPU 0 instructions: 190000001 cycles: 231042404 heartbeat IPC: 0.654462 cumulative IPC: 0.655022 (Simulation time: 1 hr 51 min 56 sec) 
Heartbeat CPU 0 instructions: 200000001 cycles: 246337724 heartbeat IPC: 0.653795 cumulative IPC: 0.65494 (Simulation time: 1 hr 53 min 35 sec) 
Heartbeat CPU 0 instructions: 210000001 cycles: 261586315 heartbeat IPC: 0.655798 cumulative IPC: 0.654993 (Simulation time: 1 hr 55 min 5 sec) 
Heartbeat CPU 0 instructions: 220000000 cycles: 276847609 heartbeat IPC: 0.655252 cumulative IPC: 0.655008 (Simulation time: 1 hr 56 min 17 sec) 
Heartbeat CPU 0 instructions: 230000000 cycles: 292053258 heartbeat IPC: 0.65765 cumulative IPC: 0.655155 (Simulation time: 1 hr 57 min 12 sec) 
Heartbeat CPU 0 instructions: 240000002 cycles: 307243203 heartbeat IPC: 0.65833 cumulative IPC: 0.655321 (Simulation time: 1 hr 58 min 7 sec) 
Heartbeat CPU 0 instructions: 250000000 cycles: 322501846 heartbeat IPC: 0.655366 cumulative IPC: 0.655323 (Simulation time: 1 hr 59 min 1 sec) 
Finished CPU 0 instructions: 200000000 cycles: 305192860 cumulative IPC: 0.655323 (Simulation time: 1 hr 59 min 1 sec) 

ChampSim completed all CPUs

Region of Interest Statistics

CPU 0 cumulative IPC: 0.655323 instructions: 200000000 cycles: 305192860
ITLB TOTAL     ACCESS:   33643628  HIT:   33643628  MISS:          0  HIT %:        100  MISS %:          0   MPKI: 0
ITLB LOAD TRANSLATION ACCESS:   33643628  HIT:   33643628  MISS:          0  HIT %:        100  MISS %:          0   MPKI: 0
ITLB PREFETCH  REQUESTED:          0  ISSUED:          0  USEFUL:          0  USELESS:          0
ITLB USEFUL LOAD PREFETCHES:          0 PREFETCH ISSUED TO LOWER LEVEL:          0  ACCURACY: -nan
ITLB TIMELY PREFETCHES:          0 LATE PREFETCHES: 0 DROPPED PREFETCHES: 0
ITLB PREFETCHES SAME FILL-ORIGIN LEVEL: 0 DIFFERENT FILL-ORIGIN LEVEL: 0
ITLB AVERAGE MISS LATENCY: -nan cycles
ITLB RQ	ACCESS:   37991480	FORWARD:          0	MERGED:    4347853	TO_CACHE:   33643627

DTLB TOTAL     ACCESS:   46354727  HIT:   46276120  MISS:      78607  HIT %:    99.8304  MISS %:   0.169577   MPKI: 0.393035
DTLB LOAD TRANSLATION ACCESS:   46354727  HIT:   46276120  MISS:      78607  HIT %:    99.8304  MISS %:   0.169577   MPKI: 0.393035
DTLB PREFETCH  REQUESTED:          0  ISSUED:          0  USEFUL:          0  USELESS:          0
DTLB USEFUL LOAD PREFETCHES:          0 PREFETCH ISSUED TO LOWER LEVEL:          0  ACCURACY: -nan
DTLB TIMELY PREFETCHES:          0 LATE PREFETCHES: 0 DROPPED PREFETCHES: 0
DTLB PREFETCHES SAME FILL-ORIGIN LEVEL: 0 DIFFERENT FILL-ORIGIN LEVEL: 0
DTLB AVERAGE MISS LATENCY: 13.3127 cycles
DTLB RQ	ACCESS:   55628095	FORWARD:          0	MERGED:    9271550	TO_CACHE:   46356545

STLB TOTAL     ACCESS:   10834164  HIT:   10831679  MISS:       2485  HIT %:    99.9771  MISS %:  0.0229367   MPKI: 0.012425
STLB LOAD TRANSLATION ACCESS:      78607  HIT:      76132  MISS:       2475  HIT %:    96.8514  MISS %:    3.14857   MPKI: 0.012375
STLB TRANSLATION FROM L1D PREFETCHER ACCESS:   10755557  HIT:   10755547  MISS:         10  HIT %:    99.9999  MISS %: 9.29752e-05   MPKI: 5e-05
STLB PREFETCH  REQUESTED:          0  ISSUED:          0  USEFUL:         10  USELESS:          0
STLB USEFUL LOAD PREFETCHES:         10 PREFETCH ISSUED TO LOWER LEVEL:          0  ACCURACY: inf
STLB TIMELY PREFETCHES:         10 LATE PREFETCHES: 15 DROPPED PREFETCHES: 217791
STLB PREFETCHES SAME FILL-ORIGIN LEVEL: 0 DIFFERENT FILL-ORIGIN LEVEL: 0
STLB AVERAGE MISS LATENCY: 136.187 cycles
STLB RQ	ACCESS:   49652860	FORWARD:          0	MERGED:   38600423	TO_CACHE:   11052437

STLB Hit, L1D data hit: 0
STLB Hit, L2C data hit: 0
STLB Hit, LLC data hit: 0
STLB Hit, LLC data miss: 0
STLB STLB hints to L2: 0
L1D TOTAL     ACCESS:   88573753  HIT:   86381866  MISS:    2191887  HIT %:    97.5254  MISS %:    2.47465   MPKI: 10.9594
L1D LOAD      ACCESS:   52254833  HIT:   51674450  MISS:     580383  HIT %:    98.8893  MISS %:    1.11068   MPKI: 2.90191
L1D RFO       ACCESS:    3344210  HIT:    3343305  MISS:        905  HIT %:    99.9729  MISS %:  0.0270617   MPKI: 0.004525
L1D PREFETCH  ACCESS:   32974710  HIT:   31364111  MISS:    1610599  HIT %:    95.1157  MISS %:    4.88435   MPKI: 8.05299
L1D PREFETCH  REQUESTED:  103915846  ISSUED:   99926060  USEFUL:    1211599  USELESS:     399076
L1D USEFUL LOAD PREFETCHES:    1211599 PREFETCH ISSUED TO LOWER LEVEL:   17762575  ACCURACY: 6.82108
L1D TIMELY PREFETCHES:    1211599 LATE PREFETCHES: 217 DROPPED PREFETCHES: 426863
L1D PREFETCHES SAME FILL-ORIGIN LEVEL: 1610816 DIFFERENT FILL-ORIGIN LEVEL: 16151759
L1D AVERAGE MISS LATENCY: 17.9985 cycles
L1D RQ	ACCESS:   60700396	FORWARD:          0	MERGED:    8411968	TO_CACHE:   52283885
L1D WQ	ACCESS:    3646099	FORWARD:       4543	MERGED:     301889	TO_CACHE:    3344210
L1D PQ	ACCESS:   50351807	FORWARD:          0	MERGED:     777554	TO_CACHE:   49574253

L1D UNIQUE REGIONS ACCESSED: 0
L1D REGIONS CONFLICTS: 0
L1D Cross Page Prefetch Requests: 5266608
L1D Same Page Prefetch Requests: 55863510
L1D ROI Sum of L1D PQ occupancy: 757663026
L1D PREFETCHES PUSHED FROM L2C: 0
L1I TOTAL     ACCESS:   37991481  HIT:   37991481  MISS:          0  HIT %:        100  MISS %:          0   MPKI: 0
L1I LOAD      ACCESS:   37991481  HIT:   37991481  MISS:          0  HIT %:        100  MISS %:          0   MPKI: 0
L1I PREFETCH  REQUESTED:          0  ISSUED:          0  USEFUL:          0  USELESS:          0
L1I USEFUL LOAD PREFETCHES:          0 PREFETCH ISSUED TO LOWER LEVEL:          0  ACCURACY: -nan
L1I TIMELY PREFETCHES:          0 LATE PREFETCHES: 0 DROPPED PREFETCHES: 0
L1I PREFETCHES SAME FILL-ORIGIN LEVEL: 0 DIFFERENT FILL-ORIGIN LEVEL: 0
L1I AVERAGE MISS LATENCY: -nan cycles
L1I RQ	ACCESS:   57343233	FORWARD:          0	MERGED:   19351753	TO_CACHE:   37991480

BTB TOTAL     ACCESS:   24544770  HIT:   24536493  MISS:       8277  HIT %:    99.9663  MISS %:  0.0337221   MPKI: 0.041385
BTB BRANCH_DIRECT_JUMP	ACCESS:    4173606  HIT:    4173581  MISS:         25
BTB BRANCH_INDIRECT	ACCESS:          0  HIT:          0  MISS:          0
BTB BRANCH_CONDITIONAL	ACCESS:   19704216  HIT:   19704176  MISS:         40
BTB BRANCH_DIRECT_CALL	ACCESS:     333474  HIT:     333471  MISS:          3
BTB BRANCH_INDIRECT_CALL	ACCESS:          0  HIT:          0  MISS:          0
BTB BRANCH_RETURN	ACCESS:     333474  HIT:     325265  MISS:       8209
BTB BRANCH_OTHER ACCESS:          0  HIT:          0  MISS:          0

L2C TOTAL     ACCESS:   18544995  HIT:   18353027  MISS:     191968  HIT %:    98.9649  MISS %:    1.03515   MPKI: 0.95984
L2C LOAD      ACCESS:     580166  HIT:     571717  MISS:       8449  HIT %:    98.5437  MISS %:    1.45631   MPKI: 0.042245
L2C DATA LOAD MPKI: 0.042245
L2C INSTRUCTION LOAD MPKI: 0
L2C RFO       ACCESS:        905  HIT:        791  MISS:        114  HIT %:    87.4033  MISS %:    12.5967   MPKI: 0.00057
L2C PREFETCH  ACCESS:   17725978  HIT:   17543724  MISS:     182254  HIT %:    98.9718  MISS %:    1.02817   MPKI: 0.91127
L2C DATA PREFETCH MPKI: 0.91127
L2C INSTRUCTION PREFETCH MPKI: 0
L2C WRITEBACK ACCESS:        905  HIT:        905  MISS:          0  HIT %:        100  MISS %:          0   MPKI: 0
L2C LOAD TRANSLATION ACCESS:       2480  HIT:       2063  MISS:        417  HIT %:    83.1855  MISS %:    16.8145   MPKI: 0.002085
L2C TRANSLATION FROM L1D PREFETCHER ACCESS:     234561  HIT:     233827  MISS:        734  HIT %:    99.6871  MISS %:   0.312925   MPKI: 0.00367
L2C PREFETCH  REQUESTED:          0  ISSUED:          0  USEFUL:      14094  USELESS:     169220
L2C USEFUL LOAD PREFETCHES:      14094 PREFETCH ISSUED TO LOWER LEVEL:     182260  ACCURACY: 7.73291
L2C TIMELY PREFETCHES:      14094 LATE PREFETCHES: 6 DROPPED PREFETCHES: 0
L2C PREFETCHES SAME FILL-ORIGIN LEVEL: 133781 DIFFERENT FILL-ORIGIN LEVEL: 0
L2C AVERAGE MISS LATENCY: 98.4223 cycles
L2C RQ	ACCESS:     818112	FORWARD:          0	MERGED:          0	TO_CACHE:     818112
L2C WQ	ACCESS:        905	FORWARD:          0	MERGED:          0	TO_CACHE:        905
L2C PQ	ACCESS:   17762575	FORWARD:          0	MERGED:         31	TO_CACHE:   17762544

L2C Instructions Evicting Data 0
L2C Translations Evicting Data 1147
L2C Data Evicting Data 189641
L2C Instructions Evicting Instructions 0
L2C Translations Evicting Instructions 0
L2C Data Evicting Instructions 0
L2C Instructions Evicting Translations 0
L2C Translations Evicting Translations 4
L2C Data Evicting Translations 1176
L2C Dense regions hint from L2: 0
PSCL5 TOTAL     ACCESS:     220291  HIT:     220291  MISS:          0  HIT %:        100  MISS %:          0   MPKI: 0
PSCL5 LOAD TRANSLATION ACCESS:       2475  HIT:       2475  MISS:          0  HIT %:        100  MISS %:          0   MPKI: 0
PSCL5 TRANSLATION FROM L1D PREFETCHER ACCESS:     217816  HIT:     217816  MISS:          0  HIT %:        100  MISS %:          0   MPKI: 0
PSCL5 PREFETCH  REQUESTED:          0  ISSUED:          0  USEFUL:          0  USELESS:          0
PSCL5 USEFUL LOAD PREFETCHES:          0 PREFETCH ISSUED TO LOWER LEVEL:          0  ACCURACY: -nan
PSCL5 TIMELY PREFETCHES:          0 LATE PREFETCHES: 0 DROPPED PREFETCHES: 0
PSCL5 PREFETCHES SAME FILL-ORIGIN LEVEL: 0 DIFFERENT FILL-ORIGIN LEVEL: 0

PSCL4 TOTAL     ACCESS:     220291  HIT:     220291  MISS:          0  HIT %:        100  MISS %:          0   MPKI: 0
PSCL4 LOAD TRANSLATION ACCESS:       2475  HIT:       2475  MISS:          0  HIT %:        100  MISS %:          0   MPKI: 0
PSCL4 TRANSLATION FROM L1D PREFETCHER ACCESS:     217816  HIT:     217816  MISS:          0  HIT %:        100  MISS %:          0   MPKI: 0
PSCL4 PREFETCH  REQUESTED:          0  ISSUED:          0  USEFUL:          0  USELESS:          0
PSCL4 USEFUL LOAD PREFETCHES:          0 PREFETCH ISSUED TO LOWER LEVEL:          0  ACCURACY: -nan
PSCL4 TIMELY PREFETCHES:          0 LATE PREFETCHES: 0 DROPPED PREFETCHES: 0
PSCL4 PREFETCHES SAME FILL-ORIGIN LEVEL: 0 DIFFERENT FILL-ORIGIN LEVEL: 0

PSCL3 TOTAL     ACCESS:     220291  HIT:     220291  MISS:          0  HIT %:        100  MISS %:          0   MPKI: 0
PSCL3 LOAD TRANSLATION ACCESS:       2475  HIT:       2475  MISS:          0  HIT %:        100  MISS %:          0   MPKI: 0
PSCL3 TRANSLATION FROM L1D PREFETCHER ACCESS:     217816  HIT:     217816  MISS:          0  HIT %:        100  MISS %:          0   MPKI: 0
PSCL3 PREFETCH  REQUESTED:          0  ISSUED:          0  USEFUL:          0  USELESS:          0
PSCL3 USEFUL LOAD PREFETCHES:          0 PREFETCH ISSUED TO LOWER LEVEL:          0  ACCURACY: -nan
PSCL3 TIMELY PREFETCHES:          0 LATE PREFETCHES: 0 DROPPED PREFETCHES: 0
PSCL3 PREFETCHES SAME FILL-ORIGIN LEVEL: 0 DIFFERENT FILL-ORIGIN LEVEL: 0

PSCL2 TOTAL     ACCESS:     203483  HIT:     203464  MISS:         19  HIT %:    99.9907  MISS %: 0.00933739   MPKI: 9.5e-05
PSCL2 LOAD TRANSLATION ACCESS:       2475  HIT:       2456  MISS:         19  HIT %:    99.2323  MISS %:   0.767677   MPKI: 9.5e-05
PSCL2 TRANSLATION FROM L1D PREFETCHER ACCESS:     201008  HIT:     201008  MISS:          0  HIT %:        100  MISS %:          0   MPKI: 0
PSCL2 PREFETCH  REQUESTED:          0  ISSUED:          0  USEFUL:          0  USELESS:          0
PSCL2 USEFUL LOAD PREFETCHES:          0 PREFETCH ISSUED TO LOWER LEVEL:          0  ACCURACY: -nan
PSCL2 TIMELY PREFETCHES:          0 LATE PREFETCHES: 0 DROPPED PREFETCHES: 0
PSCL2 PREFETCHES SAME FILL-ORIGIN LEVEL: 0 DIFFERENT FILL-ORIGIN LEVEL: 0

LLC TOTAL     ACCESS:     192091  HIT:      44872  MISS:     147219  HIT %:    23.3598  MISS %:    76.6402   MPKI: 0.736095
LLC LOAD      ACCESS:       8443  HIT:       4124  MISS:       4319  HIT %:    48.8452  MISS %:    51.1548   MPKI: 0.021595
LLC RFO       ACCESS:        114  HIT:          0  MISS:        114  HIT %:          0  MISS %:        100   MPKI: 0.00057
LLC PREFETCH  ACCESS:     182260  HIT:      39960  MISS:     142300  HIT %:    21.9247  MISS %:    78.0753   MPKI: 0.7115
LLC WRITEBACK ACCESS:        123  HIT:        120  MISS:          3  HIT %:     97.561  MISS %:    2.43902   MPKI: 1.5e-05
LLC LOAD TRANSLATION ACCESS:        417  HIT:        140  MISS:        277  HIT %:    33.5731  MISS %:    66.4269   MPKI: 0.001385
LLC TRANSLATION FROM L1D PREFETCHER ACCESS:        734  HIT:        528  MISS:        206  HIT %:    71.9346  MISS %:    28.0654   MPKI: 0.00103
LLC PREFETCH  REQUESTED:          0  ISSUED:          0  USEFUL:       1043  USELESS:     141600
LLC USEFUL LOAD PREFETCHES:       1043 PREFETCH ISSUED TO LOWER LEVEL:     142300  ACCURACY: 0.732959
LLC TIMELY PREFETCHES:       1043 LATE PREFETCHES: 0 DROPPED PREFETCHES: 0
LLC PREFETCHES SAME FILL-ORIGIN LEVEL: 0 DIFFERENT FILL-ORIGIN LEVEL: 0
LLC AVERAGE MISS LATENCY: 89.1718 cycles
LLC RQ	ACCESS:       9708	FORWARD:          0	MERGED:          0	TO_CACHE:       9708
LLC WQ	ACCESS:        123	FORWARD:          0	MERGED:          0	TO_CACHE:        123
LLC PQ	ACCESS:     182260	FORWARD:          0	MERGED:          0	TO_CACHE:     182260

LLC Dense regions hint to LLC: 0

RAW hits: 1370424
Loads Generated: 62070822
Loads sent to L1D: 60700396
Stores Generated: 3646099
Stores sent to L1D: 3646099
Major fault: 0 Minor fault: 3391
Allocated PAGES: 3391

DRAM Statistics
 CHANNEL 0
 RQ ROW_BUFFER_HIT:     120420  ROW_BUFFER_MISS:      26796
 DBUS_CONGESTED:          0
 WQ ROW_BUFFER_HIT:          0  ROW_BUFFER_MISS:        115  FULL:          0

 AVG_CONGESTED_CYCLE: -
 All warmup complete: 2
Channel 0 Bank busy for read cycles: 0
Channel 0 Bank busy for write cycles: 0
Channel 0
Rank 0
0banks busy for read cycles: 296693508
0banks busy for write cycles: 111
1banks busy for read cycles: 7844518
1banks busy for write cycles: 16252
2banks busy for read cycles: 278126
2banks busy for write cycles: 584
3banks busy for read cycles: 93038
3banks busy for write cycles: 0
4banks busy for read cycles: 85841
4banks busy for write cycles: 0
5banks busy for read cycles: 101028
5banks busy for write cycles: 0
6banks busy for read cycles: 57550
6banks busy for write cycles: 0
7banks busy for read cycles: 11720
7banks busy for write cycles: 0
8banks busy for read cycles: 10585
8banks busy for write cycles: 0

CPU 0 Branch Prediction Accuracy: 97.971% MPKI: 2.12126 Average ROB Occupancy at Mispredict: 139.859
Branch types
NOT_BRANCH: 174249442 87.1247%
BRANCH_DIRECT_JUMP: 4173606 2.0868%
BRANCH_INDIRECT: 0 0%
BRANCH_CONDITIONAL: 20909737 10.4549%
BRANCH_DIRECT_CALL: 333474 0.166737%
BRANCH_INDIRECT_CALL: 0 0%
BRANCH_RETURN: 333474 0.166737%
BRANCH_OTHER: 0 0%

DRAM PAGES: 1048576
Allocated PAGES: 3391
