
*** ChampSim Multicore Out-of-Order Simulator ***

Warmup Instructions: 50000000
Simulation Instructions: 200000000
Number of CPUs: 1
LLC sets: 2048
LLC ways: 16
Off-chip DRAM Size: 4096 MB Channels: 1 Width: 64-bit Data Rate: 6400 MT/s
argv[0]: ./ChampSim/Berti/bin/multiperspective_perceptron8kb-no-vberti-no-no-no-no-no-lru-lru-lru-srrip-drrip-lru-lru-lru-1core-no
argv[1]: -warmup_instructions
argv[2]: 50000000
argv[3]: -simulation_instructions
argv[4]: 200000000
argv[5]: -traces
argv[6]: traces/spec2k17_ten/648.exchange2_s-1227B.champsimtrace.xz
CPU 0 runs traces/spec2k17_ten/648.exchange2_s-1227B.champsimtrace.xz
.xz
CPU 0 Multiperspective perceptron branch predictor
BTB has LRU replacement policy
ITLB has LRU replacement policy
DTLB has LRU replacement policy
STLB has LRU replacement policy
L1I has LRU replacement policy
History Sets: 8
History Ways: 16
BERTI Size: 16
BERTI Stride Size: 16
L1D has LRU replacement policy
Initialize SRRIP state for L2C
Initialize DRRIP state for LLC
Heartbeat CPU 0 instructions: 10000001 cycles: 2720964 heartbeat IPC: 3.67517 cumulative IPC: 3.67517 (Simulation time: 0 hr 10 min 7 sec) 
Heartbeat CPU 0 instructions: 20000003 cycles: 5455619 heartbeat IPC: 3.65677 cumulative IPC: 3.66595 (Simulation time: 0 hr 15 min 8 sec) 
Heartbeat CPU 0 instructions: 30000002 cycles: 8136807 heartbeat IPC: 3.72969 cumulative IPC: 3.68695 (Simulation time: 0 hr 16 min 40 sec) 
Heartbeat CPU 0 instructions: 40000001 cycles: 10840879 heartbeat IPC: 3.69813 cumulative IPC: 3.68974 (Simulation time: 0 hr 19 min 6 sec) 
Heartbeat CPU 0 instructions: 50000001 cycles: 13506517 heartbeat IPC: 3.75145 cumulative IPC: 3.70192 (Simulation time: 0 hr 21 min 45 sec) 

Warmup complete CPU 0 instructions: 50000001 cycles: 13506517 (Simulation time: 0 hr 21 min 45 sec) 

Heartbeat CPU 0 instructions: 60000002 cycles: 25179954 heartbeat IPC: 0.856646 cumulative IPC: 0.856646 (Simulation time: 0 hr 25 min 35 sec) 
Heartbeat CPU 0 instructions: 70000002 cycles: 34668767 heartbeat IPC: 1.05387 cumulative IPC: 0.945079 (Simulation time: 0 hr 29 min 55 sec) 
Heartbeat CPU 0 instructions: 80000001 cycles: 44075207 heartbeat IPC: 1.0631 cumulative IPC: 0.981396 (Simulation time: 0 hr 32 min 12 sec) 
Heartbeat CPU 0 instructions: 90000000 cycles: 53412702 heartbeat IPC: 1.07095 cumulative IPC: 1.00235 (Simulation time: 0 hr 35 min 1 sec) 
Heartbeat CPU 0 instructions: 100000002 cycles: 62857640 heartbeat IPC: 1.05877 cumulative IPC: 1.01315 (Simulation time: 0 hr 38 min 35 sec) 
Heartbeat CPU 0 instructions: 110000000 cycles: 72245722 heartbeat IPC: 1.06518 cumulative IPC: 1.02146 (Simulation time: 0 hr 41 min 8 sec) 
Heartbeat CPU 0 instructions: 120000003 cycles: 81684008 heartbeat IPC: 1.05951 cumulative IPC: 1.02673 (Simulation time: 0 hr 45 min 34 sec) 
Heartbeat CPU 0 instructions: 130000000 cycles: 91095682 heartbeat IPC: 1.06251 cumulative IPC: 1.03107 (Simulation time: 0 hr 52 min 26 sec) 
Heartbeat CPU 0 instructions: 140000000 cycles: 100409229 heartbeat IPC: 1.0737 cumulative IPC: 1.03564 (Simulation time: 0 hr 58 min 15 sec) 
Heartbeat CPU 0 instructions: 150000000 cycles: 110941215 heartbeat IPC: 0.949489 cumulative IPC: 1.02633 (Simulation time: 1 hr 3 min 15 sec) 
Heartbeat CPU 0 instructions: 160000003 cycles: 123795473 heartbeat IPC: 0.777953 cumulative IPC: 0.99738 (Simulation time: 1 hr 10 min 36 sec) 
Heartbeat CPU 0 instructions: 170000000 cycles: 135881793 heartbeat IPC: 0.827381 cumulative IPC: 0.98059 (Simulation time: 1 hr 14 min 38 sec) 
Heartbeat CPU 0 instructions: 180000003 cycles: 145139012 heartbeat IPC: 1.08024 cumulative IPC: 0.987598 (Simulation time: 1 hr 18 min 15 sec) 
Heartbeat CPU 0 instructions: 190000003 cycles: 154269107 heartbeat IPC: 1.09528 cumulative IPC: 0.994582 (Simulation time: 1 hr 21 min 35 sec) 
Heartbeat CPU 0 instructions: 200000003 cycles: 163414138 heartbeat IPC: 1.09349 cumulative IPC: 1.00062 (Simulation time: 1 hr 29 min 18 sec) 
Heartbeat CPU 0 instructions: 210000000 cycles: 172656478 heartbeat IPC: 1.08198 cumulative IPC: 1.00534 (Simulation time: 1 hr 31 min 21 sec) 
Heartbeat CPU 0 instructions: 220000000 cycles: 185490276 heartbeat IPC: 0.779193 cumulative IPC: 0.988465 (Simulation time: 1 hr 35 min 39 sec) 
Heartbeat CPU 0 instructions: 230000001 cycles: 198053666 heartbeat IPC: 0.795964 cumulative IPC: 0.975361 (Simulation time: 1 hr 40 min 1 sec) 
Heartbeat CPU 0 instructions: 240000003 cycles: 209000972 heartbeat IPC: 0.913467 cumulative IPC: 0.971895 (Simulation time: 1 hr 42 min 27 sec) 
Heartbeat CPU 0 instructions: 250000001 cycles: 219915737 heartbeat IPC: 0.91619 cumulative IPC: 0.968949 (Simulation time: 1 hr 45 min 48 sec) 
Finished CPU 0 instructions: 200000000 cycles: 206409220 cumulative IPC: 0.968949 (Simulation time: 1 hr 45 min 48 sec) 

ChampSim completed all CPUs

Region of Interest Statistics

CPU 0 cumulative IPC: 0.968949 instructions: 200000000 cycles: 206409220
ITLB TOTAL     ACCESS:   30317235  HIT:   30317235  MISS:          0  HIT %:        100  MISS %:          0   MPKI: 0
ITLB LOAD TRANSLATION ACCESS:   30317235  HIT:   30317235  MISS:          0  HIT %:        100  MISS %:          0   MPKI: 0
ITLB PREFETCH  REQUESTED:          0  ISSUED:          0  USEFUL:          0  USELESS:          0
ITLB USEFUL LOAD PREFETCHES:          0 PREFETCH ISSUED TO LOWER LEVEL:          0  ACCURACY: -nan
ITLB TIMELY PREFETCHES:          0 LATE PREFETCHES: 0 DROPPED PREFETCHES: 0
ITLB PREFETCHES SAME FILL-ORIGIN LEVEL: 0 DIFFERENT FILL-ORIGIN LEVEL: 0
ITLB AVERAGE MISS LATENCY: -nan cycles
ITLB RQ	ACCESS:   36699465	FORWARD:          0	MERGED:    6382231	TO_CACHE:   30317234

DTLB TOTAL     ACCESS:   35070032  HIT:   35070032  MISS:          0  HIT %:        100  MISS %:          0   MPKI: 0
DTLB LOAD TRANSLATION ACCESS:   35070032  HIT:   35070032  MISS:          0  HIT %:        100  MISS %:          0   MPKI: 0
DTLB PREFETCH  REQUESTED:          0  ISSUED:          0  USEFUL:          0  USELESS:          0
DTLB USEFUL LOAD PREFETCHES:          0 PREFETCH ISSUED TO LOWER LEVEL:          0  ACCURACY: -nan
DTLB TIMELY PREFETCHES:          0 LATE PREFETCHES: 0 DROPPED PREFETCHES: 0
DTLB PREFETCHES SAME FILL-ORIGIN LEVEL: 0 DIFFERENT FILL-ORIGIN LEVEL: 0
DTLB AVERAGE MISS LATENCY: -nan cycles
DTLB RQ	ACCESS:   55136298	FORWARD:          0	MERGED:   20066265	TO_CACHE:   35070033

STLB TOTAL     ACCESS:     620429  HIT:     620429  MISS:          0  HIT %:        100  MISS %:          0   MPKI: 0
STLB TRANSLATION FROM L1D PREFETCHER ACCESS:     620429  HIT:     620429  MISS:          0  HIT %:        100  MISS %:          0   MPKI: 0
STLB PREFETCH  REQUESTED:          0  ISSUED:          0  USEFUL:          0  USELESS:          0
STLB USEFUL LOAD PREFETCHES:          0 PREFETCH ISSUED TO LOWER LEVEL:          0  ACCURACY: -nan
STLB TIMELY PREFETCHES:          0 LATE PREFETCHES: 0 DROPPED PREFETCHES: 0
STLB PREFETCHES SAME FILL-ORIGIN LEVEL: 0 DIFFERENT FILL-ORIGIN LEVEL: 0
STLB AVERAGE MISS LATENCY: -nan cycles
STLB RQ	ACCESS:    2363455	FORWARD:          0	MERGED:    1743026	TO_CACHE:     620429

STLB Hit, L1D data hit: 0
STLB Hit, L2C data hit: 0
STLB Hit, LLC data hit: 0
STLB Hit, LLC data miss: 0
STLB STLB hints to L2: 0
L1D TOTAL     ACCESS:   57416421  HIT:   57416410  MISS:         11  HIT %:        100  MISS %: 1.91583e-05   MPKI: 5.5e-05
L1D LOAD      ACCESS:   26059796  HIT:   26059785  MISS:         11  HIT %:        100  MISS %: 4.22106e-05   MPKI: 5.5e-05
L1D RFO       ACCESS:   29076503  HIT:   29076503  MISS:          0  HIT %:        100  MISS %:          0   MPKI: 0
L1D PREFETCH  ACCESS:    2280122  HIT:    2280122  MISS:          0  HIT %:        100  MISS %:          0   MPKI: 0
L1D PREFETCH  REQUESTED:    5866892  ISSUED:    5796038  USEFUL:          0  USELESS:          0
L1D USEFUL LOAD PREFETCHES:          0 PREFETCH ISSUED TO LOWER LEVEL:      83333  ACCURACY: 0
L1D TIMELY PREFETCHES:          0 LATE PREFETCHES: 0 DROPPED PREFETCHES: 0
L1D PREFETCHES SAME FILL-ORIGIN LEVEL: 0 DIFFERENT FILL-ORIGIN LEVEL: 83333
L1D AVERAGE MISS LATENCY: 142.273 cycles
L1D RQ	ACCESS:   41328990	FORWARD:          0	MERGED:   15059862	TO_CACHE:   26059796
L1D WQ	ACCESS:   32423916	FORWARD:     209332	MERGED:    3347414	TO_CACHE:   29076502
L1D PQ	ACCESS:    3432583	FORWARD:          0	MERGED:    1069128	TO_CACHE:    2363455

L1D UNIQUE REGIONS ACCESSED: 0
L1D REGIONS CONFLICTS: 0
L1D Cross Page Prefetch Requests: 988689
L1D Same Page Prefetch Requests: 3164095
L1D ROI Sum of L1D PQ occupancy: 36281582
L1D PREFETCHES PUSHED FROM L2C: 0
L1I TOTAL     ACCESS:   36685420  HIT:   36657071  MISS:      28349  HIT %:    99.9227  MISS %:  0.0772759   MPKI: 0.141745
L1I LOAD      ACCESS:   36685420  HIT:   36657071  MISS:      28349  HIT %:    99.9227  MISS %:  0.0772759   MPKI: 0.141745
L1I PREFETCH  REQUESTED:          0  ISSUED:          0  USEFUL:          0  USELESS:          0
L1I USEFUL LOAD PREFETCHES:          0 PREFETCH ISSUED TO LOWER LEVEL:          0  ACCURACY: -nan
L1I TIMELY PREFETCHES:          0 LATE PREFETCHES: 0 DROPPED PREFETCHES: 0
L1I PREFETCHES SAME FILL-ORIGIN LEVEL: 0 DIFFERENT FILL-ORIGIN LEVEL: 0
L1I AVERAGE MISS LATENCY: 14.0962 cycles
L1I RQ	ACCESS:   54906152	FORWARD:          0	MERGED:   18206687	TO_CACHE:   36699465

BTB TOTAL     ACCESS:   25706164  HIT:   25664544  MISS:      41620  HIT %:    99.8381  MISS %:   0.161907   MPKI: 0.2081
BTB BRANCH_DIRECT_JUMP	ACCESS:    2382754  HIT:    2382629  MISS:        125
BTB BRANCH_INDIRECT	ACCESS:          0  HIT:          0  MISS:          0
BTB BRANCH_CONDITIONAL	ACCESS:   23106873  HIT:   23106052  MISS:        821
BTB BRANCH_DIRECT_CALL	ACCESS:     108268  HIT:     108185  MISS:         83
BTB BRANCH_INDIRECT_CALL	ACCESS:          0  HIT:          0  MISS:          0
BTB BRANCH_RETURN	ACCESS:     108269  HIT:      67678  MISS:      40591
BTB BRANCH_OTHER ACCESS:          0  HIT:          0  MISS:          0

L2C TOTAL     ACCESS:     111693  HIT:     111663  MISS:         30  HIT %:    99.9731  MISS %:  0.0268593   MPKI: 0.00015
L2C LOAD      ACCESS:      28360  HIT:      28330  MISS:         30  HIT %:    99.8942  MISS %:   0.105783   MPKI: 0.00015
L2C DATA LOAD MPKI: 5.5e-05
L2C INSTRUCTION LOAD MPKI: 9.5e-05
L2C PREFETCH  ACCESS:      83333  HIT:      83333  MISS:          0  HIT %:        100  MISS %:          0   MPKI: 0
L2C DATA PREFETCH MPKI: 0
L2C INSTRUCTION PREFETCH MPKI: 0
L2C PREFETCH  REQUESTED:          0  ISSUED:          0  USEFUL:          0  USELESS:          0
L2C USEFUL LOAD PREFETCHES:          0 PREFETCH ISSUED TO LOWER LEVEL:          0  ACCURACY: -nan
L2C TIMELY PREFETCHES:          0 LATE PREFETCHES: 0 DROPPED PREFETCHES: 0
L2C PREFETCHES SAME FILL-ORIGIN LEVEL: 0 DIFFERENT FILL-ORIGIN LEVEL: 0
L2C AVERAGE MISS LATENCY: 133.333 cycles
L2C RQ	ACCESS:      28360	FORWARD:          0	MERGED:          0	TO_CACHE:      28360
L2C PQ	ACCESS:      83333	FORWARD:          0	MERGED:          0	TO_CACHE:      83333

L2C Instructions Evicting Data 0
L2C Translations Evicting Data 0
L2C Data Evicting Data 0
L2C Instructions Evicting Instructions 0
L2C Translations Evicting Instructions 0
L2C Data Evicting Instructions 0
L2C Instructions Evicting Translations 0
L2C Translations Evicting Translations 0
L2C Data Evicting Translations 0
L2C Dense regions hint from L2: 0
PSCL5 PREFETCH  REQUESTED:          0  ISSUED:          0  USEFUL:          0  USELESS:          0
PSCL5 USEFUL LOAD PREFETCHES:          0 PREFETCH ISSUED TO LOWER LEVEL:          0  ACCURACY: -nan
PSCL5 TIMELY PREFETCHES:          0 LATE PREFETCHES: 0 DROPPED PREFETCHES: 0
PSCL5 PREFETCHES SAME FILL-ORIGIN LEVEL: 0 DIFFERENT FILL-ORIGIN LEVEL: 0

PSCL4 PREFETCH  REQUESTED:          0  ISSUED:          0  USEFUL:          0  USELESS:          0
PSCL4 USEFUL LOAD PREFETCHES:          0 PREFETCH ISSUED TO LOWER LEVEL:          0  ACCURACY: -nan
PSCL4 TIMELY PREFETCHES:          0 LATE PREFETCHES: 0 DROPPED PREFETCHES: 0
PSCL4 PREFETCHES SAME FILL-ORIGIN LEVEL: 0 DIFFERENT FILL-ORIGIN LEVEL: 0

PSCL3 PREFETCH  REQUESTED:          0  ISSUED:          0  USEFUL:          0  USELESS:          0
PSCL3 USEFUL LOAD PREFETCHES:          0 PREFETCH ISSUED TO LOWER LEVEL:          0  ACCURACY: -nan
PSCL3 TIMELY PREFETCHES:          0 LATE PREFETCHES: 0 DROPPED PREFETCHES: 0
PSCL3 PREFETCHES SAME FILL-ORIGIN LEVEL: 0 DIFFERENT FILL-ORIGIN LEVEL: 0

PSCL2 PREFETCH  REQUESTED:          0  ISSUED:          0  USEFUL:          0  USELESS:          0
PSCL2 USEFUL LOAD PREFETCHES:          0 PREFETCH ISSUED TO LOWER LEVEL:          0  ACCURACY: -nan
PSCL2 TIMELY PREFETCHES:          0 LATE PREFETCHES: 0 DROPPED PREFETCHES: 0
PSCL2 PREFETCHES SAME FILL-ORIGIN LEVEL: 0 DIFFERENT FILL-ORIGIN LEVEL: 0

LLC TOTAL     ACCESS:         30  HIT:          0  MISS:         30  HIT %:          0  MISS %:        100   MPKI: 0.00015
LLC LOAD      ACCESS:         30  HIT:          0  MISS:         30  HIT %:          0  MISS %:        100   MPKI: 0.00015
LLC PREFETCH  REQUESTED:          0  ISSUED:          0  USEFUL:          0  USELESS:          0
LLC USEFUL LOAD PREFETCHES:          0 PREFETCH ISSUED TO LOWER LEVEL:          0  ACCURACY: -nan
LLC TIMELY PREFETCHES:          0 LATE PREFETCHES: 0 DROPPED PREFETCHES: 0
LLC PREFETCHES SAME FILL-ORIGIN LEVEL: 0 DIFFERENT FILL-ORIGIN LEVEL: 0
LLC AVERAGE MISS LATENCY: 103.333 cycles
LLC RQ	ACCESS:         30	FORWARD:          0	MERGED:          0	TO_CACHE:         30

LLC Dense regions hint to LLC: 0

RAW hits: 6160952
Loads Generated: 47489942
Loads sent to L1D: 41328990
Stores Generated: 32423910
Stores sent to L1D: 32423916
Major fault: 0 Minor fault: 58
Allocated PAGES: 58

DRAM Statistics
 CHANNEL 0
 RQ ROW_BUFFER_HIT:         20  ROW_BUFFER_MISS:         10
 DBUS_CONGESTED:          0
 WQ ROW_BUFFER_HIT:          0  ROW_BUFFER_MISS:          0  FULL:          0

 AVG_CONGESTED_CYCLE: -
 All warmup complete: 2
Channel 0 Bank busy for read cycles: 0
Channel 0 Bank busy for write cycles: 0
Channel 0
Rank 0
0banks busy for read cycles: 206406916
0banks busy for write cycles: 0
1banks busy for read cycles: 2110
1banks busy for write cycles: 0
2banks busy for read cycles: 195
2banks busy for write cycles: 0
3banks busy for read cycles: 0
3banks busy for write cycles: 0
4banks busy for read cycles: 0
4banks busy for write cycles: 0
5banks busy for read cycles: 0
5banks busy for write cycles: 0
6banks busy for read cycles: 0
6banks busy for write cycles: 0
7banks busy for read cycles: 0
7banks busy for write cycles: 0
8banks busy for read cycles: 0
8banks busy for write cycles: 0

CPU 0 Branch Prediction Accuracy: 98.306% MPKI: 2.19938 Average ROB Occupancy at Mispredict: 29.1318
Branch types
NOT_BRANCH: 171434355 85.7172%
BRANCH_DIRECT_JUMP: 2382754 1.19138%
BRANCH_INDIRECT: 0 0%
BRANCH_CONDITIONAL: 25966018 12.983%
BRANCH_DIRECT_CALL: 108268 0.054134%
BRANCH_INDIRECT_CALL: 0 0%
BRANCH_RETURN: 108269 0.0541345%
BRANCH_OTHER: 0 0%

DRAM PAGES: 1048576
Allocated PAGES: 58
