 (TOTAL 67349)
 
*** ChampSim Multicore Out-of-Order Simulator ***

Warmup Instructions: 50000000
Simulation Instructions: 200000000
Number of CPUs: 1
LLC sets: 2048
LLC ways: 16
Off-chip DRAM Size: 4096 MB Channels: 1 Width: 64-bit Data Rate: 6400 MT/s
argv[0]: ./ChampSim/Berti/bin/tagescl8kb-no-vberti-no-no-no-no-no-lru-lru-lru-srrip-drrip-lru-lru-lru-1core-no
argv[1]: -warmup_instructions
argv[2]: 50000000
argv[3]: -simulation_instructions
argv[4]: 200000000
argv[5]: -traces
argv[6]: traces/spec2k17_ten/621.wrf_s-575B.champsimtrace.xz
CPU 0 runs traces/spec2k17_ten/621.wrf_s-575B.champsimtrace.xz
.xz
CPU 0 Tage branch predictor
BTB has LRU replacement policy
ITLB has LRU replacement policy
DTLB has LRU replacement policy
STLB has LRU replacement policy
L1I has LRU replacement policy
History Sets: 8
History Ways: 16
BERTI Size: 16
BERTI Stride Size: 16
L1D has LRU replacement policy
Initialize SRRIP state for L2C
Initialize DRRIP state for LLC
Heartbeat CPU 0 instructions: 10000000 cycles: 3626524 heartbeat IPC: 2.75746 cumulative IPC: 2.75746 (Simulation time: 0 hr 8 min 58 sec) 
Heartbeat CPU 0 instructions: 20000002 cycles: 7255590 heartbeat IPC: 2.75553 cumulative IPC: 2.7565 (Simulation time: 0 hr 11 min 4 sec) 
Heartbeat CPU 0 instructions: 30000000 cycles: 10888705 heartbeat IPC: 2.75246 cumulative IPC: 2.75515 (Simulation time: 0 hr 13 min 43 sec) 
Heartbeat CPU 0 instructions: 40000002 cycles: 14522709 heartbeat IPC: 2.75179 cumulative IPC: 2.75431 (Simulation time: 0 hr 17 min 41 sec) 
Heartbeat CPU 0 instructions: 50000002 cycles: 18156197 heartbeat IPC: 2.75218 cumulative IPC: 2.75388 (Simulation time: 0 hr 23 min 1 sec) 

Warmup complete CPU 0 instructions: 50000002 cycles: 18156197 (Simulation time: 0 hr 23 min 1 sec) 

Heartbeat CPU 0 instructions: 60000001 cycles: 35430554 heartbeat IPC: 0.578893 cumulative IPC: 0.578893 (Simulation time: 0 hr 29 min 34 sec) 
Heartbeat CPU 0 instructions: 70000000 cycles: 52641434 heartbeat IPC: 0.581028 cumulative IPC: 0.579958 (Simulation time: 0 hr 35 min 57 sec) 
Heartbeat CPU 0 instructions: 80000002 cycles: 69746385 heartbeat IPC: 0.584626 cumulative IPC: 0.581506 (Simulation time: 0 hr 42 min 24 sec) 
Heartbeat CPU 0 instructions: 90000000 cycles: 86922740 heartbeat IPC: 0.582196 cumulative IPC: 0.581678 (Simulation time: 0 hr 45 min 51 sec) 
Heartbeat CPU 0 instructions: 100000001 cycles: 104059026 heartbeat IPC: 0.583557 cumulative IPC: 0.582053 (Simulation time: 0 hr 51 min 59 sec) 
Heartbeat CPU 0 instructions: 110000000 cycles: 121089562 heartbeat IPC: 0.58718 cumulative IPC: 0.582901 (Simulation time: 0 hr 58 min 50 sec) 
Heartbeat CPU 0 instructions: 120000001 cycles: 137899884 heartbeat IPC: 0.594873 cumulative IPC: 0.584582 (Simulation time: 1 hr 5 min 45 sec) 
Heartbeat CPU 0 instructions: 130000000 cycles: 154761617 heartbeat IPC: 0.593059 cumulative IPC: 0.585628 (Simulation time: 1 hr 12 min 24 sec) 
Heartbeat CPU 0 instructions: 140000001 cycles: 171584755 heartbeat IPC: 0.594419 cumulative IPC: 0.586592 (Simulation time: 1 hr 14 min 29 sec) 
Heartbeat CPU 0 instructions: 150000000 cycles: 188148228 heartbeat IPC: 0.603738 cumulative IPC: 0.588263 (Simulation time: 1 hr 19 min 54 sec) 
Heartbeat CPU 0 instructions: 160000002 cycles: 204759163 heartbeat IPC: 0.602013 cumulative IPC: 0.589487 (Simulation time: 1 hr 27 min 13 sec) 
Heartbeat CPU 0 instructions: 170000001 cycles: 221328834 heartbeat IPC: 0.603512 cumulative IPC: 0.590631 (Simulation time: 1 hr 32 min 42 sec) 
Heartbeat CPU 0 instructions: 180000000 cycles: 237923611 heartbeat IPC: 0.602599 cumulative IPC: 0.591534 (Simulation time: 1 hr 37 min 4 sec) 
Heartbeat CPU 0 instructions: 190000003 cycles: 254557807 heartbeat IPC: 0.601171 cumulative IPC: 0.592213 (Simulation time: 1 hr 42 min 28 sec) 
Heartbeat CPU 0 instructions: 200000000 cycles: 271146492 heartbeat IPC: 0.60282 cumulative IPC: 0.592908 (Simulation time: 1 hr 46 min 5 sec) 
Heartbeat CPU 0 instructions: 210000001 cycles: 287568298 heartbeat IPC: 0.608947 cumulative IPC: 0.593886 (Simulation time: 1 hr 48 min 32 sec) 
Heartbeat CPU 0 instructions: 220000000 cycles: 303890232 heartbeat IPC: 0.612672 cumulative IPC: 0.594959 (Simulation time: 1 hr 49 min 54 sec) 
Heartbeat CPU 0 instructions: 230000001 cycles: 320355025 heartbeat IPC: 0.607357 cumulative IPC: 0.595634 (Simulation time: 1 hr 51 min 50 sec) 
Heartbeat CPU 0 instructions: 240000001 cycles: 336896406 heartbeat IPC: 0.604544 cumulative IPC: 0.596097 (Simulation time: 1 hr 54 min 1 sec) 
Heartbeat CPU 0 instructions: 250000002 cycles: 353481990 heartbeat IPC: 0.602933 cumulative IPC: 0.596435 (Simulation time: 1 hr 58 min 13 sec) 
Finished CPU 0 instructions: 200000000 cycles: 335325793 cumulative IPC: 0.596435 (Simulation time: 1 hr 58 min 13 sec) 

ChampSim completed all CPUs

Region of Interest Statistics

CPU 0 cumulative IPC: 0.596435 instructions: 200000000 cycles: 335325793
ITLB TOTAL     ACCESS:   32173876  HIT:   32173876  MISS:          0  HIT %:        100  MISS %:          0   MPKI: 0
ITLB LOAD TRANSLATION ACCESS:   32173876  HIT:   32173876  MISS:          0  HIT %:        100  MISS %:          0   MPKI: 0
ITLB PREFETCH  REQUESTED:          0  ISSUED:          0  USEFUL:          0  USELESS:          0
ITLB USEFUL LOAD PREFETCHES:          0 PREFETCH ISSUED TO LOWER LEVEL:          0  ACCURACY: -nan
ITLB TIMELY PREFETCHES:          0 LATE PREFETCHES: 0 DROPPED PREFETCHES: 0
ITLB PREFETCHES SAME FILL-ORIGIN LEVEL: 0 DIFFERENT FILL-ORIGIN LEVEL: 0
ITLB AVERAGE MISS LATENCY: -nan cycles
ITLB RQ	ACCESS:   41096850	FORWARD:          0	MERGED:    8922975	TO_CACHE:   32173875

DTLB TOTAL     ACCESS:   31142212  HIT:   31129950  MISS:      12262  HIT %:    99.9606  MISS %:  0.0393742   MPKI: 0.06131
DTLB LOAD TRANSLATION ACCESS:   31142212  HIT:   31129950  MISS:      12262  HIT %:    99.9606  MISS %:  0.0393742   MPKI: 0.06131
DTLB PREFETCH  REQUESTED:          0  ISSUED:          0  USEFUL:          0  USELESS:          0
DTLB USEFUL LOAD PREFETCHES:          0 PREFETCH ISSUED TO LOWER LEVEL:          0  ACCURACY: -nan
DTLB TIMELY PREFETCHES:          0 LATE PREFETCHES: 0 DROPPED PREFETCHES: 0
DTLB PREFETCHES SAME FILL-ORIGIN LEVEL: 0 DIFFERENT FILL-ORIGIN LEVEL: 0
DTLB AVERAGE MISS LATENCY: 11.8406 cycles
DTLB RQ	ACCESS:   33827782	FORWARD:          0	MERGED:    2685062	TO_CACHE:   31142720

STLB TOTAL     ACCESS:      79096  HIT:      78873  MISS:        223  HIT %:    99.7181  MISS %:   0.281936   MPKI: 0.001115
STLB LOAD TRANSLATION ACCESS:      12262  HIT:      12039  MISS:        223  HIT %:    98.1814  MISS %:    1.81863   MPKI: 0.001115
STLB TRANSLATION FROM L1D PREFETCHER ACCESS:      66834  HIT:      66834  MISS:          0  HIT %:        100  MISS %:          0   MPKI: 0
STLB PREFETCH  REQUESTED:          0  ISSUED:          0  USEFUL:          0  USELESS:          0
STLB USEFUL LOAD PREFETCHES:          0 PREFETCH ISSUED TO LOWER LEVEL:          0  ACCURACY: -nan
STLB TIMELY PREFETCHES:          0 LATE PREFETCHES: 0 DROPPED PREFETCHES: 3361
STLB PREFETCHES SAME FILL-ORIGIN LEVEL: 0 DIFFERENT FILL-ORIGIN LEVEL: 0
STLB AVERAGE MISS LATENCY: 154.65 cycles
STLB RQ	ACCESS:     158556	FORWARD:          0	MERGED:      76097	TO_CACHE:      82459

STLB Hit, L1D data hit: 0
STLB Hit, L2C data hit: 0
STLB Hit, LLC data hit: 0
STLB Hit, LLC data miss: 0
STLB STLB hints to L2: 0
L1D TOTAL     ACCESS:   33867291  HIT:   33861653  MISS:       5638  HIT %:    99.9834  MISS %:  0.0166473   MPKI: 0.02819
L1D LOAD      ACCESS:   26363785  HIT:   26362256  MISS:       1529  HIT %:    99.9942  MISS %: 0.00579962   MPKI: 0.007645
L1D RFO       ACCESS:    7459745  HIT:    7456373  MISS:       3372  HIT %:    99.9548  MISS %:  0.0452026   MPKI: 0.01686
L1D PREFETCH  ACCESS:      43761  HIT:      43024  MISS:        737  HIT %:    98.3159  MISS %:    1.68415   MPKI: 0.003685
L1D PREFETCH  REQUESTED:     292844  ISSUED:     292844  USEFUL:        654  USELESS:         90
L1D USEFUL LOAD PREFETCHES:        654 PREFETCH ISSUED TO LOWER LEVEL:      98787  ACCURACY: 0.66203
L1D TIMELY PREFETCHES:        654 LATE PREFETCHES: 63 DROPPED PREFETCHES: 4229
L1D PREFETCHES SAME FILL-ORIGIN LEVEL: 800 DIFFERENT FILL-ORIGIN LEVEL: 97987
L1D AVERAGE MISS LATENCY: 166.307 cycles
L1D RQ	ACCESS:   33055247	FORWARD:          0	MERGED:    6421900	TO_CACHE:   26364697
L1D WQ	ACCESS:    7464969	FORWARD:     268653	MERGED:       1884	TO_CACHE:    7463085
L1D PQ	ACCESS:     146550	FORWARD:          0	MERGED:        253	TO_CACHE:     146294

L1D UNIQUE REGIONS ACCESSED: 0
L1D REGIONS CONFLICTS: 0
L1D Cross Page Prefetch Requests: 4302
L1D Same Page Prefetch Requests: 197893
L1D ROI Sum of L1D PQ occupancy: 2021897
L1D PREFETCHES PUSHED FROM L2C: 0
L1I TOTAL     ACCESS:   41096185  HIT:   41094713  MISS:       1472  HIT %:    99.9964  MISS %: 0.00358184   MPKI: 0.00736
L1I LOAD      ACCESS:   41096185  HIT:   41094713  MISS:       1472  HIT %:    99.9964  MISS %: 0.00358184   MPKI: 0.00736
L1I PREFETCH  REQUESTED:          0  ISSUED:          0  USEFUL:          0  USELESS:          0
L1I USEFUL LOAD PREFETCHES:          0 PREFETCH ISSUED TO LOWER LEVEL:          0  ACCURACY: -nan
L1I TIMELY PREFETCHES:          0 LATE PREFETCHES: 0 DROPPED PREFETCHES: 0
L1I PREFETCHES SAME FILL-ORIGIN LEVEL: 0 DIFFERENT FILL-ORIGIN LEVEL: 0
L1I AVERAGE MISS LATENCY: 14.2188 cycles
L1I RQ	ACCESS:   56991394	FORWARD:          0	MERGED:   15894544	TO_CACHE:   41096850

BTB TOTAL     ACCESS:   16051402  HIT:   14487433  MISS:    1563969  HIT %:    90.2565  MISS %:     9.7435   MPKI: 7.81984
BTB BRANCH_DIRECT_JUMP	ACCESS:    1796498  HIT:    1796468  MISS:         30
BTB BRANCH_INDIRECT	ACCESS:          0  HIT:          0  MISS:          0
BTB BRANCH_CONDITIONAL	ACCESS:    9861101  HIT:    9860989  MISS:        112
BTB BRANCH_DIRECT_CALL	ACCESS:    2196902  HIT:    2196697  MISS:        205
BTB BRANCH_INDIRECT_CALL	ACCESS:          0  HIT:          0  MISS:          0
BTB BRANCH_RETURN	ACCESS:    2196901  HIT:     633279  MISS:    1563622
BTB BRANCH_OTHER ACCESS:          0  HIT:          0  MISS:          0

L2C TOTAL     ACCESS:     112264  HIT:     106495  MISS:       5769  HIT %:    94.8612  MISS %:    5.13878   MPKI: 0.028845
L2C LOAD      ACCESS:       2938  HIT:       1749  MISS:       1189  HIT %:    59.5303  MISS %:    40.4697   MPKI: 0.005945
L2C DATA LOAD MPKI: 0.005895
L2C INSTRUCTION LOAD MPKI: 5e-05
L2C RFO       ACCESS:       3372  HIT:         88  MISS:       3284  HIT %:    2.60973  MISS %:    97.3903   MPKI: 0.01642
L2C PREFETCH  ACCESS:      98353  HIT:      97109  MISS:       1244  HIT %:    98.7352  MISS %:    1.26483   MPKI: 0.00622
L2C DATA PREFETCH MPKI: 0.00622
L2C INSTRUCTION PREFETCH MPKI: 0
L2C WRITEBACK ACCESS:       4017  HIT:       4014  MISS:          3  HIT %:    99.9253  MISS %:  0.0746826   MPKI: 1.5e-05
L2C LOAD TRANSLATION ACCESS:        223  HIT:        183  MISS:         40  HIT %:    82.0628  MISS %:    17.9372   MPKI: 0.0002
L2C TRANSLATION FROM L1D PREFETCHER ACCESS:       3361  HIT:       3352  MISS:          9  HIT %:    99.7322  MISS %:   0.267777   MPKI: 4.5e-05
L2C PREFETCH  REQUESTED:          0  ISSUED:          0  USEFUL:        282  USELESS:         65
L2C USEFUL LOAD PREFETCHES:        282 PREFETCH ISSUED TO LOWER LEVEL:       1306  ACCURACY: 21.5926
L2C TIMELY PREFETCHES:        282 LATE PREFETCHES: 62 DROPPED PREFETCHES: 0
L2C PREFETCHES SAME FILL-ORIGIN LEVEL: 1151 DIFFERENT FILL-ORIGIN LEVEL: 0
L2C AVERAGE MISS LATENCY: 184.58 cycles
L2C RQ	ACCESS:       9894	FORWARD:          0	MERGED:          0	TO_CACHE:       9894
L2C WQ	ACCESS:       4017	FORWARD:          0	MERGED:          0	TO_CACHE:       4017
L2C PQ	ACCESS:      98787	FORWARD:          0	MERGED:          0	TO_CACHE:      98787

L2C Instructions Evicting Data 3
L2C Translations Evicting Data 5
L2C Data Evicting Data 367
L2C Instructions Evicting Instructions 6
L2C Translations Evicting Instructions 3
L2C Data Evicting Instructions 168
L2C Instructions Evicting Translations 1
L2C Translations Evicting Translations 0
L2C Data Evicting Translations 9
L2C Dense regions hint from L2: 0
PSCL5 TOTAL     ACCESS:       3584  HIT:       3584  MISS:          0  HIT %:        100  MISS %:          0   MPKI: 0
PSCL5 LOAD TRANSLATION ACCESS:        223  HIT:        223  MISS:          0  HIT %:        100  MISS %:          0   MPKI: 0
PSCL5 TRANSLATION FROM L1D PREFETCHER ACCESS:       3361  HIT:       3361  MISS:          0  HIT %:        100  MISS %:          0   MPKI: 0
PSCL5 PREFETCH  REQUESTED:          0  ISSUED:          0  USEFUL:          0  USELESS:          0
PSCL5 USEFUL LOAD PREFETCHES:          0 PREFETCH ISSUED TO LOWER LEVEL:          0  ACCURACY: -nan
PSCL5 TIMELY PREFETCHES:          0 LATE PREFETCHES: 0 DROPPED PREFETCHES: 0
PSCL5 PREFETCHES SAME FILL-ORIGIN LEVEL: 0 DIFFERENT FILL-ORIGIN LEVEL: 0

PSCL4 TOTAL     ACCESS:       3584  HIT:       3584  MISS:          0  HIT %:        100  MISS %:          0   MPKI: 0
PSCL4 LOAD TRANSLATION ACCESS:        223  HIT:        223  MISS:          0  HIT %:        100  MISS %:          0   MPKI: 0
PSCL4 TRANSLATION FROM L1D PREFETCHER ACCESS:       3361  HIT:       3361  MISS:          0  HIT %:        100  MISS %:          0   MPKI: 0
PSCL4 PREFETCH  REQUESTED:          0  ISSUED:          0  USEFUL:          0  USELESS:          0
PSCL4 USEFUL LOAD PREFETCHES:          0 PREFETCH ISSUED TO LOWER LEVEL:          0  ACCURACY: -nan
PSCL4 TIMELY PREFETCHES:          0 LATE PREFETCHES: 0 DROPPED PREFETCHES: 0
PSCL4 PREFETCHES SAME FILL-ORIGIN LEVEL: 0 DIFFERENT FILL-ORIGIN LEVEL: 0

PSCL3 TOTAL     ACCESS:       3584  HIT:       3584  MISS:          0  HIT %:        100  MISS %:          0   MPKI: 0
PSCL3 LOAD TRANSLATION ACCESS:        223  HIT:        223  MISS:          0  HIT %:        100  MISS %:          0   MPKI: 0
PSCL3 TRANSLATION FROM L1D PREFETCHER ACCESS:       3361  HIT:       3361  MISS:          0  HIT %:        100  MISS %:          0   MPKI: 0
PSCL3 PREFETCH  REQUESTED:          0  ISSUED:          0  USEFUL:          0  USELESS:          0
PSCL3 USEFUL LOAD PREFETCHES:          0 PREFETCH ISSUED TO LOWER LEVEL:          0  ACCURACY: -nan
PSCL3 TIMELY PREFETCHES:          0 LATE PREFETCHES: 0 DROPPED PREFETCHES: 0
PSCL3 PREFETCHES SAME FILL-ORIGIN LEVEL: 0 DIFFERENT FILL-ORIGIN LEVEL: 0

PSCL2 TOTAL     ACCESS:       3584  HIT:       3583  MISS:          1  HIT %:    99.9721  MISS %:  0.0279018   MPKI: 5e-06
PSCL2 LOAD TRANSLATION ACCESS:        223  HIT:        222  MISS:          1  HIT %:    99.5516  MISS %:    0.44843   MPKI: 5e-06
PSCL2 TRANSLATION FROM L1D PREFETCHER ACCESS:       3361  HIT:       3361  MISS:          0  HIT %:        100  MISS %:          0   MPKI: 0
PSCL2 PREFETCH  REQUESTED:          0  ISSUED:          0  USEFUL:          0  USELESS:          0
PSCL2 USEFUL LOAD PREFETCHES:          0 PREFETCH ISSUED TO LOWER LEVEL:          0  ACCURACY: -nan
PSCL2 TIMELY PREFETCHES:          0 LATE PREFETCHES: 0 DROPPED PREFETCHES: 0
PSCL2 PREFETCHES SAME FILL-ORIGIN LEVEL: 0 DIFFERENT FILL-ORIGIN LEVEL: 0

LLC TOTAL     ACCESS:       5780  HIT:         27  MISS:       5753  HIT %:   0.467128  MISS %:    99.5329   MPKI: 0.028765
LLC LOAD      ACCESS:       1127  HIT:         13  MISS:       1114  HIT %:     1.1535  MISS %:    98.8465   MPKI: 0.00557
LLC RFO       ACCESS:       3284  HIT:          0  MISS:       3284  HIT %:          0  MISS %:        100   MPKI: 0.01642
LLC PREFETCH  ACCESS:       1306  HIT:          0  MISS:       1306  HIT %:          0  MISS %:        100   MPKI: 0.00653
LLC WRITEBACK ACCESS:         14  HIT:         14  MISS:          0  HIT %:        100  MISS %:          0   MPKI: 0
LLC LOAD TRANSLATION ACCESS:         40  HIT:          0  MISS:         40  HIT %:          0  MISS %:        100   MPKI: 0.0002
LLC TRANSLATION FROM L1D PREFETCHER ACCESS:          9  HIT:          0  MISS:          9  HIT %:          0  MISS %:        100   MPKI: 4.5e-05
LLC PREFETCH  REQUESTED:          0  ISSUED:          0  USEFUL:          0  USELESS:         12
LLC USEFUL LOAD PREFETCHES:          0 PREFETCH ISSUED TO LOWER LEVEL:       1306  ACCURACY: 0
LLC TIMELY PREFETCHES:          0 LATE PREFETCHES: 0 DROPPED PREFETCHES: 0
LLC PREFETCHES SAME FILL-ORIGIN LEVEL: 0 DIFFERENT FILL-ORIGIN LEVEL: 0
LLC AVERAGE MISS LATENCY: 153.54 cycles
LLC RQ	ACCESS:       4460	FORWARD:          0	MERGED:          0	TO_CACHE:       4460
LLC WQ	ACCESS:         14	FORWARD:          0	MERGED:          0	TO_CACHE:         14
LLC PQ	ACCESS:       1306	FORWARD:          0	MERGED:          0	TO_CACHE:       1306

LLC Dense regions hint to LLC: 0

RAW hits: 477487
Loads Generated: 33532734
Loads sent to L1D: 33055247
Stores Generated: 7464969
Stores sent to L1D: 7464969
Major fault: 0 Minor fault: 395
Allocated PAGES: 395

DRAM Statistics
 CHANNEL 0
 RQ ROW_BUFFER_HIT:       1252  ROW_BUFFER_MISS:       4501
 DBUS_CONGESTED:          0
 WQ ROW_BUFFER_HIT:          0  ROW_BUFFER_MISS:          0  FULL:          0

 AVG_CONGESTED_CYCLE: -
 All warmup complete: 2
Channel 0 Bank busy for read cycles: 0
Channel 0 Bank busy for write cycles: 0
Channel 0
Rank 0
0banks busy for read cycles: 334870941
0banks busy for write cycles: 0
1banks busy for read cycles: 307843
1banks busy for write cycles: 0
2banks busy for read cycles: 87571
2banks busy for write cycles: 0
3banks busy for read cycles: 26843
3banks busy for write cycles: 0
4banks busy for read cycles: 9321
4banks busy for write cycles: 0
5banks busy for read cycles: 11189
5banks busy for write cycles: 0
6banks busy for read cycles: 6456
6banks busy for write cycles: 0
7banks busy for read cycles: 2765
7banks busy for write cycles: 0
8banks busy for read cycles: 2865
8banks busy for write cycles: 0

CPU 0 Branch Prediction Accuracy: 99.6286% MPKI: 0.38288 Average ROB Occupancy at Mispredict: 57.7895
Branch types
NOT_BRANCH: 173193955 86.597%
BRANCH_DIRECT_JUMP: 1796498 0.898249%
BRANCH_INDIRECT: 0 0%
BRANCH_CONDITIONAL: 20615493 10.3077%
BRANCH_DIRECT_CALL: 2196902 1.09845%
BRANCH_INDIRECT_CALL: 0 0%
BRANCH_RETURN: 2196901 1.09845%
BRANCH_OTHER: 0 0%

DRAM PAGES: 1048576
Allocated PAGES: 395
