 (TOTAL 67349)
 
*** ChampSim Multicore Out-of-Order Simulator ***

Warmup Instructions: 50000000
Simulation Instructions: 200000000
Number of CPUs: 1
LLC sets: 2048
LLC ways: 16
Off-chip DRAM Size: 4096 MB Channels: 1 Width: 64-bit Data Rate: 6400 MT/s
argv[0]: ./ChampSim/Berti/bin/tagescl8kb-no-vberti-no-no-no-no-no-lru-lru-lru-srrip-drrip-lru-lru-lru-1core-no
argv[1]: -warmup_instructions
argv[2]: 50000000
argv[3]: -simulation_instructions
argv[4]: 200000000
argv[5]: -traces
argv[6]: traces/spec2k17_ten/621.wrf_s-8100B.champsimtrace.xz
CPU 0 runs traces/spec2k17_ten/621.wrf_s-8100B.champsimtrace.xz
.xz
CPU 0 Tage branch predictor
BTB has LRU replacement policy
ITLB has LRU replacement policy
DTLB has LRU replacement policy
STLB has LRU replacement policy
L1I has LRU replacement policy
History Sets: 8
History Ways: 16
BERTI Size: 16
BERTI Stride Size: 16
L1D has LRU replacement policy
Initialize SRRIP state for L2C
Initialize DRRIP state for LLC
Heartbeat CPU 0 instructions: 10000000 cycles: 3314809 heartbeat IPC: 3.01677 cumulative IPC: 3.01677 (Simulation time: 0 hr 4 min 11 sec) 
Heartbeat CPU 0 instructions: 20000001 cycles: 6602667 heartbeat IPC: 3.04149 cumulative IPC: 3.02908 (Simulation time: 0 hr 9 min 38 sec) 
Heartbeat CPU 0 instructions: 30000003 cycles: 9950183 heartbeat IPC: 2.98729 cumulative IPC: 3.01502 (Simulation time: 0 hr 16 min 9 sec) 
Heartbeat CPU 0 instructions: 40000001 cycles: 13226059 heartbeat IPC: 3.05262 cumulative IPC: 3.02433 (Simulation time: 0 hr 19 min 34 sec) 
Heartbeat CPU 0 instructions: 50000000 cycles: 16552895 heartbeat IPC: 3.00586 cumulative IPC: 3.02062 (Simulation time: 0 hr 24 min 24 sec) 

Warmup complete CPU 0 instructions: 50000004 cycles: 16552896 (Simulation time: 0 hr 24 min 24 sec) 

Heartbeat CPU 0 instructions: 60000000 cycles: 32152428 heartbeat IPC: 0.641045 cumulative IPC: 0.641045 (Simulation time: 0 hr 29 min 44 sec) 
Heartbeat CPU 0 instructions: 70000002 cycles: 48247654 heartbeat IPC: 0.621302 cumulative IPC: 0.631019 (Simulation time: 0 hr 34 min 56 sec) 
Heartbeat CPU 0 instructions: 80000001 cycles: 64013477 heartbeat IPC: 0.634283 cumulative IPC: 0.632103 (Simulation time: 0 hr 43 min 13 sec) 
Heartbeat CPU 0 instructions: 90000002 cycles: 80114899 heartbeat IPC: 0.621063 cumulative IPC: 0.629307 (Simulation time: 0 hr 49 min 41 sec) 
Heartbeat CPU 0 instructions: 100000001 cycles: 96012591 heartbeat IPC: 0.629022 cumulative IPC: 0.62925 (Simulation time: 0 hr 55 min 52 sec) 
Heartbeat CPU 0 instructions: 110000000 cycles: 112321412 heartbeat IPC: 0.613165 cumulative IPC: 0.626511 (Simulation time: 1 hr 1 min 43 sec) 
Heartbeat CPU 0 instructions: 120000000 cycles: 127960305 heartbeat IPC: 0.639431 cumulative IPC: 0.628324 (Simulation time: 1 hr 6 min 10 sec) 
Heartbeat CPU 0 instructions: 130000000 cycles: 144594565 heartbeat IPC: 0.601169 cumulative IPC: 0.624797 (Simulation time: 1 hr 14 min 54 sec) 
Heartbeat CPU 0 instructions: 140000000 cycles: 160583793 heartbeat IPC: 0.625421 cumulative IPC: 0.624866 (Simulation time: 1 hr 22 min 42 sec) 
Heartbeat CPU 0 instructions: 150000003 cycles: 176722047 heartbeat IPC: 0.619646 cumulative IPC: 0.62434 (Simulation time: 1 hr 28 min 45 sec) 
Heartbeat CPU 0 instructions: 160000000 cycles: 193067974 heartbeat IPC: 0.611773 cumulative IPC: 0.623176 (Simulation time: 1 hr 36 min 57 sec) 
Heartbeat CPU 0 instructions: 170000000 cycles: 209124450 heartbeat IPC: 0.622802 cumulative IPC: 0.623145 (Simulation time: 1 hr 44 min 3 sec) 
Heartbeat CPU 0 instructions: 180000003 cycles: 225827807 heartbeat IPC: 0.598682 cumulative IPC: 0.621192 (Simulation time: 1 hr 51 min 2 sec) 
Heartbeat CPU 0 instructions: 190000002 cycles: 241725886 heartbeat IPC: 0.629007 cumulative IPC: 0.621744 (Simulation time: 1 hr 57 min 23 sec) 
Heartbeat CPU 0 instructions: 200000000 cycles: 258124412 heartbeat IPC: 0.609811 cumulative IPC: 0.620934 (Simulation time: 2 hr 2 min 23 sec) 
Heartbeat CPU 0 instructions: 210000000 cycles: 274302434 heartbeat IPC: 0.618123 cumulative IPC: 0.620758 (Simulation time: 2 hr 7 min 18 sec) 
Heartbeat CPU 0 instructions: 220000000 cycles: 290538336 heartbeat IPC: 0.615919 cumulative IPC: 0.620471 (Simulation time: 2 hr 11 min 7 sec) 
Heartbeat CPU 0 instructions: 230000003 cycles: 306781012 heartbeat IPC: 0.615662 cumulative IPC: 0.620202 (Simulation time: 2 hr 14 min 16 sec) 
Heartbeat CPU 0 instructions: 240000003 cycles: 322875137 heartbeat IPC: 0.621345 cumulative IPC: 0.620262 (Simulation time: 2 hr 16 min 55 sec) 
Heartbeat CPU 0 instructions: 250000000 cycles: 339160175 heartbeat IPC: 0.61406 cumulative IPC: 0.619949 (Simulation time: 2 hr 19 min 43 sec) 
Finished CPU 0 instructions: 200000000 cycles: 322607285 cumulative IPC: 0.619949 (Simulation time: 2 hr 19 min 43 sec) 

ChampSim completed all CPUs

Region of Interest Statistics

CPU 0 cumulative IPC: 0.619949 instructions: 200000000 cycles: 322607285
ITLB TOTAL     ACCESS:   31708109  HIT:   31708109  MISS:          0  HIT %:        100  MISS %:          0   MPKI: 0
ITLB LOAD TRANSLATION ACCESS:   31708109  HIT:   31708109  MISS:          0  HIT %:        100  MISS %:          0   MPKI: 0
ITLB PREFETCH  REQUESTED:          0  ISSUED:          0  USEFUL:          0  USELESS:          0
ITLB USEFUL LOAD PREFETCHES:          0 PREFETCH ISSUED TO LOWER LEVEL:          0  ACCURACY: -nan
ITLB TIMELY PREFETCHES:          0 LATE PREFETCHES: 0 DROPPED PREFETCHES: 0
ITLB PREFETCHES SAME FILL-ORIGIN LEVEL: 0 DIFFERENT FILL-ORIGIN LEVEL: 0
ITLB AVERAGE MISS LATENCY: -nan cycles
ITLB RQ	ACCESS:   38659074	FORWARD:          0	MERGED:    6950966	TO_CACHE:   31708108

DTLB TOTAL     ACCESS:   43930928  HIT:   43878302  MISS:      52626  HIT %:    99.8802  MISS %:   0.119793   MPKI: 0.26313
DTLB LOAD TRANSLATION ACCESS:   43930928  HIT:   43878302  MISS:      52626  HIT %:    99.8802  MISS %:   0.119793   MPKI: 0.26313
DTLB PREFETCH  REQUESTED:          0  ISSUED:          0  USEFUL:          0  USELESS:          0
DTLB USEFUL LOAD PREFETCHES:          0 PREFETCH ISSUED TO LOWER LEVEL:          0  ACCURACY: -nan
DTLB TIMELY PREFETCHES:          0 LATE PREFETCHES: 0 DROPPED PREFETCHES: 0
DTLB PREFETCHES SAME FILL-ORIGIN LEVEL: 0 DIFFERENT FILL-ORIGIN LEVEL: 0
DTLB AVERAGE MISS LATENCY: 10.4241 cycles
DTLB RQ	ACCESS:   50489553	FORWARD:          0	MERGED:    6543897	TO_CACHE:   43945656

STLB TOTAL     ACCESS:    5629372  HIT:    5628714  MISS:        658  HIT %:    99.9883  MISS %:  0.0116887   MPKI: 0.00329
STLB LOAD TRANSLATION ACCESS:      52626  HIT:      51968  MISS:        658  HIT %:    98.7497  MISS %:    1.25033   MPKI: 0.00329
STLB TRANSLATION FROM L1D PREFETCHER ACCESS:    5576746  HIT:    5576746  MISS:          0  HIT %:        100  MISS %:          0   MPKI: 0
STLB PREFETCH  REQUESTED:          0  ISSUED:          0  USEFUL:          0  USELESS:          0
STLB USEFUL LOAD PREFETCHES:          0 PREFETCH ISSUED TO LOWER LEVEL:          0  ACCURACY: -nan
STLB TIMELY PREFETCHES:          0 LATE PREFETCHES: 90 DROPPED PREFETCHES: 206740
STLB PREFETCHES SAME FILL-ORIGIN LEVEL: 0 DIFFERENT FILL-ORIGIN LEVEL: 0
STLB AVERAGE MISS LATENCY: 122.41 cycles
STLB RQ	ACCESS:   26540717	FORWARD:          0	MERGED:   20693107	TO_CACHE:    5847610

STLB Hit, L1D data hit: 0
STLB Hit, L2C data hit: 0
STLB Hit, LLC data hit: 0
STLB Hit, LLC data miss: 0
STLB STLB hints to L2: 0
L1D TOTAL     ACCESS:   69201983  HIT:   68337502  MISS:     864481  HIT %:    98.7508  MISS %:    1.24921   MPKI: 4.3224
L1D LOAD      ACCESS:   34969299  HIT:   34772713  MISS:     196586  HIT %:    99.4378  MISS %:   0.562167   MPKI: 0.98293
L1D RFO       ACCESS:   15164667  HIT:   14835002  MISS:     329665  HIT %:    97.8261  MISS %:     2.1739   MPKI: 1.64833
L1D PREFETCH  ACCESS:   19068017  HIT:   18729787  MISS:     338230  HIT %:    98.2262  MISS %:    1.77381   MPKI: 1.69115
L1D PREFETCH  REQUESTED:   62681537  ISSUED:   53670316  USEFUL:     301434  USELESS:      36855
L1D USEFUL LOAD PREFETCHES:     301434 PREFETCH ISSUED TO LOWER LEVEL:    7367222  ACCURACY: 4.09156
L1D TIMELY PREFETCHES:     301434 LATE PREFETCHES: 2491 DROPPED PREFETCHES: 354994
L1D PREFETCHES SAME FILL-ORIGIN LEVEL: 340721 DIFFERENT FILL-ORIGIN LEVEL: 7026501
L1D AVERAGE MISS LATENCY: 22.7137 cycles
L1D RQ	ACCESS:   48093489	FORWARD:          0	MERGED:   12951356	TO_CACHE:   34989051
L1D WQ	ACCESS:   15743084	FORWARD:     153283	MERGED:     242582	TO_CACHE:   15500502
L1D PQ	ACCESS:   27182225	FORWARD:          0	MERGED:     693933	TO_CACHE:   26488091

L1D UNIQUE REGIONS ACCESSED: 0
L1D REGIONS CONFLICTS: 0
L1D Cross Page Prefetch Requests: 5429599
L1D Same Page Prefetch Requests: 29065042
L1D ROI Sum of L1D PQ occupancy: 409382391
L1D PREFETCHES PUSHED FROM L2C: 0
L1I TOTAL     ACCESS:   38649053  HIT:   38629157  MISS:      19896  HIT %:    99.9485  MISS %:  0.0514786   MPKI: 0.09948
L1I LOAD      ACCESS:   38649053  HIT:   38629157  MISS:      19896  HIT %:    99.9485  MISS %:  0.0514786   MPKI: 0.09948
L1I PREFETCH  REQUESTED:          0  ISSUED:          0  USEFUL:          0  USELESS:          0
L1I USEFUL LOAD PREFETCHES:          0 PREFETCH ISSUED TO LOWER LEVEL:          0  ACCURACY: -nan
L1I TIMELY PREFETCHES:          0 LATE PREFETCHES: 0 DROPPED PREFETCHES: 0
L1I PREFETCHES SAME FILL-ORIGIN LEVEL: 0 DIFFERENT FILL-ORIGIN LEVEL: 0
L1I AVERAGE MISS LATENCY: 41.0961 cycles
L1I RQ	ACCESS:   58512045	FORWARD:          0	MERGED:   19852971	TO_CACHE:   38659074

BTB TOTAL     ACCESS:   19220334  HIT:   18648459  MISS:     571875  HIT %:    97.0246  MISS %:    2.97536   MPKI: 2.85938
BTB BRANCH_DIRECT_JUMP	ACCESS:     773319  HIT:     773259  MISS:         60
BTB BRANCH_INDIRECT	ACCESS:          0  HIT:          0  MISS:          0
BTB BRANCH_CONDITIONAL	ACCESS:   14577656  HIT:   14577332  MISS:        324
BTB BRANCH_DIRECT_CALL	ACCESS:    1934678  HIT:    1934479  MISS:        199
BTB BRANCH_INDIRECT_CALL	ACCESS:          0  HIT:          0  MISS:          0
BTB BRANCH_RETURN	ACCESS:    1934681  HIT:    1363389  MISS:     571292
BTB BRANCH_OTHER ACCESS:          0  HIT:          0  MISS:          0

L2C TOTAL     ACCESS:    8496533  HIT:    8348928  MISS:     147605  HIT %:    98.2628  MISS %:    1.73724   MPKI: 0.738025
L2C LOAD      ACCESS:     213991  HIT:     185258  MISS:      28733  HIT %:    86.5728  MISS %:    13.4272   MPKI: 0.143665
L2C DATA LOAD MPKI: 0.055645
L2C INSTRUCTION LOAD MPKI: 0.08802
L2C RFO       ACCESS:     329665  HIT:     272789  MISS:      56876  HIT %:    82.7473  MISS %:    17.2527   MPKI: 0.28438
L2C PREFETCH  ACCESS:    7334918  HIT:    7276492  MISS:      58426  HIT %:    99.2035  MISS %:   0.796546   MPKI: 0.29213
L2C DATA PREFETCH MPKI: 0.29213
L2C INSTRUCTION PREFETCH MPKI: 0
L2C WRITEBACK ACCESS:     410471  HIT:     407293  MISS:       3178  HIT %:    99.2258  MISS %:   0.774233   MPKI: 0.01589
L2C LOAD TRANSLATION ACCESS:        658  HIT:        594  MISS:         64  HIT %:    90.2736  MISS %:    9.72644   MPKI: 0.00032
L2C TRANSLATION FROM L1D PREFETCHER ACCESS:     206830  HIT:     206502  MISS:        328  HIT %:    99.8414  MISS %:   0.158584   MPKI: 0.00164
L2C PREFETCH  REQUESTED:          0  ISSUED:          0  USEFUL:      25690  USELESS:      33344
L2C USEFUL LOAD PREFETCHES:      25690 PREFETCH ISSUED TO LOWER LEVEL:      59374  ACCURACY: 43.2681
L2C TIMELY PREFETCHES:      25690 LATE PREFETCHES: 948 DROPPED PREFETCHES: 0
L2C PREFETCHES SAME FILL-ORIGIN LEVEL: 41541 DIFFERENT FILL-ORIGIN LEVEL: 0
L2C AVERAGE MISS LATENCY: 85.4904 cycles
L2C RQ	ACCESS:     751144	FORWARD:          0	MERGED:          0	TO_CACHE:     751144
L2C WQ	ACCESS:     410471	FORWARD:          4	MERGED:          0	TO_CACHE:     410471
L2C PQ	ACCESS:    7367221	FORWARD:          0	MERGED:        128	TO_CACHE:    7367089

L2C Instructions Evicting Data 16950
L2C Translations Evicting Data 317
L2C Data Evicting Data 109534
L2C Instructions Evicting Instructions 583
L2C Translations Evicting Instructions 75
L2C Data Evicting Instructions 16588
L2C Instructions Evicting Translations 71
L2C Translations Evicting Translations 0
L2C Data Evicting Translations 309
L2C Dense regions hint from L2: 0
PSCL5 TOTAL     ACCESS:     207488  HIT:     207488  MISS:          0  HIT %:        100  MISS %:          0   MPKI: 0
PSCL5 LOAD TRANSLATION ACCESS:        658  HIT:        658  MISS:          0  HIT %:        100  MISS %:          0   MPKI: 0
PSCL5 TRANSLATION FROM L1D PREFETCHER ACCESS:     206830  HIT:     206830  MISS:          0  HIT %:        100  MISS %:          0   MPKI: 0
PSCL5 PREFETCH  REQUESTED:          0  ISSUED:          0  USEFUL:          0  USELESS:          0
PSCL5 USEFUL LOAD PREFETCHES:          0 PREFETCH ISSUED TO LOWER LEVEL:          0  ACCURACY: -nan
PSCL5 TIMELY PREFETCHES:          0 LATE PREFETCHES: 0 DROPPED PREFETCHES: 0
PSCL5 PREFETCHES SAME FILL-ORIGIN LEVEL: 0 DIFFERENT FILL-ORIGIN LEVEL: 0

PSCL4 TOTAL     ACCESS:     207488  HIT:     207488  MISS:          0  HIT %:        100  MISS %:          0   MPKI: 0
PSCL4 LOAD TRANSLATION ACCESS:        658  HIT:        658  MISS:          0  HIT %:        100  MISS %:          0   MPKI: 0
PSCL4 TRANSLATION FROM L1D PREFETCHER ACCESS:     206830  HIT:     206830  MISS:          0  HIT %:        100  MISS %:          0   MPKI: 0
PSCL4 PREFETCH  REQUESTED:          0  ISSUED:          0  USEFUL:          0  USELESS:          0
PSCL4 USEFUL LOAD PREFETCHES:          0 PREFETCH ISSUED TO LOWER LEVEL:          0  ACCURACY: -nan
PSCL4 TIMELY PREFETCHES:          0 LATE PREFETCHES: 0 DROPPED PREFETCHES: 0
PSCL4 PREFETCHES SAME FILL-ORIGIN LEVEL: 0 DIFFERENT FILL-ORIGIN LEVEL: 0

PSCL3 TOTAL     ACCESS:     207488  HIT:     207488  MISS:          0  HIT %:        100  MISS %:          0   MPKI: 0
PSCL3 LOAD TRANSLATION ACCESS:        658  HIT:        658  MISS:          0  HIT %:        100  MISS %:          0   MPKI: 0
PSCL3 TRANSLATION FROM L1D PREFETCHER ACCESS:     206830  HIT:     206830  MISS:          0  HIT %:        100  MISS %:          0   MPKI: 0
PSCL3 PREFETCH  REQUESTED:          0  ISSUED:          0  USEFUL:          0  USELESS:          0
PSCL3 USEFUL LOAD PREFETCHES:          0 PREFETCH ISSUED TO LOWER LEVEL:          0  ACCURACY: -nan
PSCL3 TIMELY PREFETCHES:          0 LATE PREFETCHES: 0 DROPPED PREFETCHES: 0
PSCL3 PREFETCHES SAME FILL-ORIGIN LEVEL: 0 DIFFERENT FILL-ORIGIN LEVEL: 0

PSCL2 TOTAL     ACCESS:     207488  HIT:     207488  MISS:          0  HIT %:        100  MISS %:          0   MPKI: 0
PSCL2 LOAD TRANSLATION ACCESS:        658  HIT:        658  MISS:          0  HIT %:        100  MISS %:          0   MPKI: 0
PSCL2 TRANSLATION FROM L1D PREFETCHER ACCESS:     206830  HIT:     206830  MISS:          0  HIT %:        100  MISS %:          0   MPKI: 0
PSCL2 PREFETCH  REQUESTED:          0  ISSUED:          0  USEFUL:          0  USELESS:          0
PSCL2 USEFUL LOAD PREFETCHES:          0 PREFETCH ISSUED TO LOWER LEVEL:          0  ACCURACY: -nan
PSCL2 TIMELY PREFETCHES:          0 LATE PREFETCHES: 0 DROPPED PREFETCHES: 0
PSCL2 PREFETCHES SAME FILL-ORIGIN LEVEL: 0 DIFFERENT FILL-ORIGIN LEVEL: 0

LLC TOTAL     ACCESS:     220458  HIT:     177497  MISS:      42961  HIT %:    80.5128  MISS %:    19.4872   MPKI: 0.214805
LLC LOAD      ACCESS:      27785  HIT:      22799  MISS:       4986  HIT %:    82.0551  MISS %:    17.9449   MPKI: 0.02493
LLC RFO       ACCESS:      56876  HIT:      56010  MISS:        866  HIT %:    98.4774  MISS %:    1.52261   MPKI: 0.00433
LLC PREFETCH  ACCESS:      59374  HIT:      22886  MISS:      36488  HIT %:    38.5455  MISS %:    61.4545   MPKI: 0.18244
LLC WRITEBACK ACCESS:      76031  HIT:      75495  MISS:        536  HIT %:     99.295  MISS %:   0.704976   MPKI: 0.00268
LLC LOAD TRANSLATION ACCESS:         64  HIT:         57  MISS:          7  HIT %:    89.0625  MISS %:    10.9375   MPKI: 3.5e-05
LLC TRANSLATION FROM L1D PREFETCHER ACCESS:        328  HIT:        250  MISS:         78  HIT %:    76.2195  MISS %:    23.7805   MPKI: 0.00039
LLC PREFETCH  REQUESTED:          0  ISSUED:          0  USEFUL:      12980  USELESS:      16338
LLC USEFUL LOAD PREFETCHES:      12980 PREFETCH ISSUED TO LOWER LEVEL:      36488  ACCURACY: 35.5733
LLC TIMELY PREFETCHES:      12980 LATE PREFETCHES: 0 DROPPED PREFETCHES: 0
LLC PREFETCHES SAME FILL-ORIGIN LEVEL: 0 DIFFERENT FILL-ORIGIN LEVEL: 0
LLC AVERAGE MISS LATENCY: 193.739 cycles
LLC RQ	ACCESS:      85053	FORWARD:          0	MERGED:          0	TO_CACHE:      85053
LLC WQ	ACCESS:      76031	FORWARD:          0	MERGED:          0	TO_CACHE:      76031
LLC PQ	ACCESS:      59374	FORWARD:          0	MERGED:          0	TO_CACHE:      59374

LLC Dense regions hint to LLC: 0

RAW hits: 719535
Loads Generated: 48813024
Loads sent to L1D: 48093489
Stores Generated: 15743048
Stores sent to L1D: 15743084
Major fault: 0 Minor fault: 1068
Allocated PAGES: 1068

DRAM Statistics
 CHANNEL 0
 RQ ROW_BUFFER_HIT:      18768  ROW_BUFFER_MISS:      23653
 DBUS_CONGESTED:         26
 WQ ROW_BUFFER_HIT:       5440  ROW_BUFFER_MISS:      14434  FULL:          0

 AVG_CONGESTED_CYCLE: 5
 All warmup complete: 2
Channel 0 Bank busy for read cycles: 0
Channel 0 Bank busy for write cycles: 0
Channel 0
Rank 0
0banks busy for read cycles: 320116574
0banks busy for write cycles: 2434
1banks busy for read cycles: 767959
1banks busy for write cycles: 337252
2banks busy for read cycles: 226523
2banks busy for write cycles: 34848
3banks busy for read cycles: 163681
3banks busy for write cycles: 23353
4banks busy for read cycles: 147494
4banks busy for write cycles: 18756
5banks busy for read cycles: 125346
5banks busy for write cycles: 17483
6banks busy for read cycles: 93131
6banks busy for write cycles: 21104
7banks busy for read cycles: 71534
7banks busy for write cycles: 36828
8banks busy for read cycles: 73713
8banks busy for write cycles: 329273

CPU 0 Branch Prediction Accuracy: 98.8566% MPKI: 1.14535 Average ROB Occupancy at Mispredict: 75.8825
Branch types
NOT_BRANCH: 175323359 87.6617%
BRANCH_DIRECT_JUMP: 773319 0.386659%
BRANCH_INDIRECT: 0 0%
BRANCH_CONDITIONAL: 20033638 10.0168%
BRANCH_DIRECT_CALL: 1934678 0.967339%
BRANCH_INDIRECT_CALL: 0 0%
BRANCH_RETURN: 1934681 0.967341%
BRANCH_OTHER: 0 0%

DRAM PAGES: 1048576
Allocated PAGES: 1068
