526208 bits of metadata so far, 405638 left out of 526336 total budget
table size is 13521 bits, 2253 entries for 5 bit, 1931 entries for 6 bit
526208 total bits (64.23KB)

*** ChampSim Multicore Out-of-Order Simulator ***

Warmup Instructions: 50000000
Simulation Instructions: 200000000
Number of CPUs: 1
LLC sets: 2048
LLC ways: 16
Off-chip DRAM Size: 4096 MB Channels: 1 Width: 64-bit Data Rate: 6400 MT/s
argv[0]: ./ChampSim/Berti/bin/multiperspective_perceptron-no-vberti-no-no-no-no-no-lru-lru-lru-srrip-drrip-lru-lru-lru-1core-no
argv[1]: -warmup_instructions
argv[2]: 50000000
argv[3]: -simulation_instructions
argv[4]: 200000000
argv[5]: -traces
argv[6]: traces/spec2k17_ten/619.lbm_s-2677B.champsimtrace.xz
CPU 0 runs traces/spec2k17_ten/619.lbm_s-2677B.champsimtrace.xz
.xz
CPU 0 Multiperspective perceptron branch predictor
BTB has LRU replacement policy
ITLB has LRU replacement policy
DTLB has LRU replacement policy
STLB has LRU replacement policy
L1I has LRU replacement policy
History Sets: 8
History Ways: 16
BERTI Size: 16
BERTI Stride Size: 16
L1D has LRU replacement policy
Initialize SRRIP state for L2C
Initialize DRRIP state for LLC
Heartbeat CPU 0 instructions: 10000001 cycles: 2922758 heartbeat IPC: 3.42143 cumulative IPC: 3.42143 (Simulation time: 0 hr 7 min 32 sec) 
Heartbeat CPU 0 instructions: 20000001 cycles: 5834593 heartbeat IPC: 3.43426 cumulative IPC: 3.42783 (Simulation time: 0 hr 15 min 17 sec) 
Heartbeat CPU 0 instructions: 30000000 cycles: 8753387 heartbeat IPC: 3.42607 cumulative IPC: 3.42724 (Simulation time: 0 hr 20 min 35 sec) 
Heartbeat CPU 0 instructions: 40000000 cycles: 11669799 heartbeat IPC: 3.42887 cumulative IPC: 3.42765 (Simulation time: 0 hr 25 min 9 sec) 
Heartbeat CPU 0 instructions: 50000001 cycles: 14594933 heartbeat IPC: 3.41865 cumulative IPC: 3.42585 (Simulation time: 0 hr 29 min 54 sec) 

Warmup complete CPU 0 instructions: 50000001 cycles: 14594933 (Simulation time: 0 hr 29 min 54 sec) 

Heartbeat CPU 0 instructions: 60000001 cycles: 35440661 heartbeat IPC: 0.479715 cumulative IPC: 0.479715 (Simulation time: 0 hr 38 min 28 sec) 
Heartbeat CPU 0 instructions: 70000002 cycles: 56125808 heartbeat IPC: 0.483439 cumulative IPC: 0.481569 (Simulation time: 0 hr 46 min 50 sec) 
Heartbeat CPU 0 instructions: 80000002 cycles: 76836717 heartbeat IPC: 0.482837 cumulative IPC: 0.481991 (Simulation time: 0 hr 54 min 54 sec) 
Heartbeat CPU 0 instructions: 90000000 cycles: 97992324 heartbeat IPC: 0.472688 cumulative IPC: 0.479631 (Simulation time: 1 hr 3 min 37 sec) 
Heartbeat CPU 0 instructions: 100000000 cycles: 119031666 heartbeat IPC: 0.4753 cumulative IPC: 0.478759 (Simulation time: 1 hr 12 min 32 sec) 
Heartbeat CPU 0 instructions: 110000000 cycles: 140295303 heartbeat IPC: 0.470286 cumulative IPC: 0.477326 (Simulation time: 1 hr 21 min 18 sec) 
Heartbeat CPU 0 instructions: 120000000 cycles: 161114539 heartbeat IPC: 0.480325 cumulative IPC: 0.477752 (Simulation time: 1 hr 28 min 56 sec) 
Heartbeat CPU 0 instructions: 130000001 cycles: 181882394 heartbeat IPC: 0.481513 cumulative IPC: 0.478219 (Simulation time: 1 hr 34 min 28 sec) 
Heartbeat CPU 0 instructions: 140000001 cycles: 202620081 heartbeat IPC: 0.482214 cumulative IPC: 0.478659 (Simulation time: 1 hr 39 min 53 sec) 
Heartbeat CPU 0 instructions: 150000000 cycles: 223839680 heartbeat IPC: 0.471262 cumulative IPC: 0.477909 (Simulation time: 1 hr 44 min 1 sec) 
Heartbeat CPU 0 instructions: 160000003 cycles: 244897027 heartbeat IPC: 0.474894 cumulative IPC: 0.477634 (Simulation time: 1 hr 48 min 1 sec) 
Heartbeat CPU 0 instructions: 170000001 cycles: 265552995 heartbeat IPC: 0.484122 cumulative IPC: 0.478168 (Simulation time: 1 hr 51 min 13 sec) 
Heartbeat CPU 0 instructions: 180000000 cycles: 285558898 heartbeat IPC: 0.499852 cumulative IPC: 0.479769 (Simulation time: 1 hr 53 min 29 sec) 
Heartbeat CPU 0 instructions: 190000001 cycles: 306456549 heartbeat IPC: 0.478523 cumulative IPC: 0.479679 (Simulation time: 1 hr 55 min 37 sec) 
Heartbeat CPU 0 instructions: 200000000 cycles: 327064721 heartbeat IPC: 0.485244 cumulative IPC: 0.480046 (Simulation time: 1 hr 57 min 30 sec) 
Heartbeat CPU 0 instructions: 210000000 cycles: 347395492 heartbeat IPC: 0.491865 cumulative IPC: 0.480768 (Simulation time: 1 hr 58 min 50 sec) 
Heartbeat CPU 0 instructions: 220000000 cycles: 368393790 heartbeat IPC: 0.476229 cumulative IPC: 0.480499 (Simulation time: 2 hr 0 min 4 sec) 
Heartbeat CPU 0 instructions: 230000002 cycles: 389615477 heartbeat IPC: 0.471216 cumulative IPC: 0.479974 (Simulation time: 2 hr 1 min 18 sec) 
Heartbeat CPU 0 instructions: 240000001 cycles: 411614605 heartbeat IPC: 0.454563 cumulative IPC: 0.478566 (Simulation time: 2 hr 2 min 35 sec) 
Heartbeat CPU 0 instructions: 250000003 cycles: 433243111 heartbeat IPC: 0.462353 cumulative IPC: 0.477728 (Simulation time: 2 hr 3 min 48 sec) 
Finished CPU 0 instructions: 200000002 cycles: 418648178 cumulative IPC: 0.477728 (Simulation time: 2 hr 3 min 48 sec) 

ChampSim completed all CPUs

Region of Interest Statistics

CPU 0 cumulative IPC: 0.477728 instructions: 200000002 cycles: 418648178
ITLB TOTAL     ACCESS:   26842800  HIT:   26842800  MISS:          0  HIT %:        100  MISS %:          0   MPKI: 0
ITLB LOAD TRANSLATION ACCESS:   26842800  HIT:   26842800  MISS:          0  HIT %:        100  MISS %:          0   MPKI: 0
ITLB PREFETCH  REQUESTED:          0  ISSUED:          0  USEFUL:          0  USELESS:          0
ITLB USEFUL LOAD PREFETCHES:          0 PREFETCH ISSUED TO LOWER LEVEL:          0  ACCURACY: -nan
ITLB TIMELY PREFETCHES:          0 LATE PREFETCHES: 0 DROPPED PREFETCHES: 0
ITLB PREFETCHES SAME FILL-ORIGIN LEVEL: 0 DIFFERENT FILL-ORIGIN LEVEL: 0
ITLB AVERAGE MISS LATENCY: -nan cycles
ITLB RQ	ACCESS:   34642931	FORWARD:          0	MERGED:    7800131	TO_CACHE:   26842800

DTLB TOTAL     ACCESS:   38586235  HIT:   38310188  MISS:     276047  HIT %:    99.2846  MISS %:   0.715403   MPKI: 1.38023
DTLB LOAD TRANSLATION ACCESS:   38586235  HIT:   38310188  MISS:     276047  HIT %:    99.2846  MISS %:   0.715403   MPKI: 1.38023
DTLB PREFETCH  REQUESTED:          0  ISSUED:          0  USEFUL:          0  USELESS:          0
DTLB USEFUL LOAD PREFETCHES:          0 PREFETCH ISSUED TO LOWER LEVEL:          0  ACCURACY: -nan
DTLB TIMELY PREFETCHES:          0 LATE PREFETCHES: 0 DROPPED PREFETCHES: 0
DTLB PREFETCHES SAME FILL-ORIGIN LEVEL: 0 DIFFERENT FILL-ORIGIN LEVEL: 0
DTLB AVERAGE MISS LATENCY: 103.872 cycles
DTLB RQ	ACCESS:   56433965	FORWARD:          0	MERGED:   17716577	TO_CACHE:   38717388

STLB TOTAL     ACCESS:    1462195  HIT:    1312435  MISS:     149760  HIT %:    89.7579  MISS %:    10.2421   MPKI: 0.7488
STLB LOAD TRANSLATION ACCESS:     276047  HIT:     126287  MISS:     149760  HIT %:    45.7484  MISS %:    54.2516   MPKI: 0.7488
STLB TRANSLATION FROM L1D PREFETCHER ACCESS:    1186148  HIT:    1186148  MISS:          0  HIT %:        100  MISS %:          0   MPKI: 0
STLB PREFETCH  REQUESTED:          0  ISSUED:          0  USEFUL:          0  USELESS:          0
STLB USEFUL LOAD PREFETCHES:          0 PREFETCH ISSUED TO LOWER LEVEL:          0  ACCURACY: -nan
STLB TIMELY PREFETCHES:          0 LATE PREFETCHES: 3434 DROPPED PREFETCHES: 469076
STLB PREFETCHES SAME FILL-ORIGIN LEVEL: 0 DIFFERENT FILL-ORIGIN LEVEL: 0
STLB AVERAGE MISS LATENCY: 174.1 cycles
STLB RQ	ACCESS:   11035964	FORWARD:          0	MERGED:    9048190	TO_CACHE:    1987774

STLB Hit, L1D data hit: 0
STLB Hit, L2C data hit: 0
STLB Hit, LLC data hit: 0
STLB Hit, LLC data miss: 0
STLB STLB hints to L2: 0
L1D TOTAL     ACCESS:   58285391  HIT:   42464210  MISS:   15821181  HIT %:    72.8557  MISS %:    27.1443   MPKI: 79.1059
L1D LOAD      ACCESS:   19944622  HIT:   18019456  MISS:    1925166  HIT %:    90.3474  MISS %:    9.65256   MPKI: 9.62583
L1D RFO       ACCESS:   36012701  HIT:   22595711  MISS:   13416990  HIT %:    62.7437  MISS %:    37.2563   MPKI: 67.0849
L1D PREFETCH  ACCESS:    2328068  HIT:    1849043  MISS:     479025  HIT %:    79.4239  MISS %:    20.5761   MPKI: 2.39512
L1D PREFETCH  REQUESTED:   33759863  ISSUED:   22770340  USEFUL:     470910  USELESS:       8124
L1D USEFUL LOAD PREFETCHES:     470910 PREFETCH ISSUED TO LOWER LEVEL:    6817771  ACCURACY: 6.9071
L1D TIMELY PREFETCHES:     470910 LATE PREFETCHES: 10535 DROPPED PREFETCHES: 1944610
L1D PREFETCHES SAME FILL-ORIGIN LEVEL: 490662 DIFFERENT FILL-ORIGIN LEVEL: 6327109
L1D AVERAGE MISS LATENCY: 337.469 cycles
L1D RQ	ACCESS:   49552221	FORWARD:          0	MERGED:   26591831	TO_CACHE:   20205306
L1D WQ	ACCESS:   36944937	FORWARD:    2755085	MERGED:     716278	TO_CACHE:   36228659
L1D PQ	ACCESS:   12010423	FORWARD:          0	MERGED:    1250505	TO_CACHE:   10759917

L1D UNIQUE REGIONS ACCESSED: 0
L1D REGIONS CONFLICTS: 0
L1D Cross Page Prefetch Requests: 3796518
L1D Same Page Prefetch Requests: 13362002
L1D ROI Sum of L1D PQ occupancy: 2598570452
L1D PREFETCHES PUSHED FROM L2C: 0
L1I TOTAL     ACCESS:   34642929  HIT:   34642929  MISS:          0  HIT %:        100  MISS %:          0   MPKI: 0
L1I LOAD      ACCESS:   34642929  HIT:   34642929  MISS:          0  HIT %:        100  MISS %:          0   MPKI: 0
L1I PREFETCH  REQUESTED:          0  ISSUED:          0  USEFUL:          0  USELESS:          0
L1I USEFUL LOAD PREFETCHES:          0 PREFETCH ISSUED TO LOWER LEVEL:          0  ACCURACY: -nan
L1I TIMELY PREFETCHES:          0 LATE PREFETCHES: 0 DROPPED PREFETCHES: 0
L1I PREFETCHES SAME FILL-ORIGIN LEVEL: 0 DIFFERENT FILL-ORIGIN LEVEL: 0
L1I AVERAGE MISS LATENCY: -nan cycles
L1I RQ	ACCESS:   49699878	FORWARD:          0	MERGED:   15056947	TO_CACHE:   34642931

BTB TOTAL     ACCESS:    3609719  HIT:    3609713  MISS:          6  HIT %:    99.9998  MISS %: 0.000166218   MPKI: 3e-05
BTB BRANCH_DIRECT_JUMP	ACCESS:     590927  HIT:     590926  MISS:          1
BTB BRANCH_INDIRECT	ACCESS:          0  HIT:          0  MISS:          0
BTB BRANCH_CONDITIONAL	ACCESS:    3018792  HIT:    3018787  MISS:          5
BTB BRANCH_DIRECT_CALL	ACCESS:          0  HIT:          0  MISS:          0
BTB BRANCH_INDIRECT_CALL	ACCESS:          0  HIT:          0  MISS:          0
BTB BRANCH_RETURN	ACCESS:          0  HIT:          0  MISS:          0
BTB BRANCH_OTHER ACCESS:          0  HIT:          0  MISS:          0

L2C TOTAL     ACCESS:   35623126  HIT:   25025950  MISS:   10597176  HIT %:     70.252  MISS %:     29.748   MPKI: 52.9859
L2C LOAD      ACCESS:    1914631  HIT:    1434720  MISS:     479911  HIT %:    74.9345  MISS %:    25.0655   MPKI: 2.39955
L2C DATA LOAD MPKI: 2.39955
L2C INSTRUCTION LOAD MPKI: 0
L2C RFO       ACCESS:   13416984  HIT:    6048085  MISS:    7368899  HIT %:    45.0778  MISS %:    54.9222   MPKI: 36.8445
L2C PREFETCH  ACCESS:    6247702  HIT:    4323895  MISS:    1923807  HIT %:    69.2078  MISS %:    30.7922   MPKI: 9.61903
L2C DATA PREFETCH MPKI: 9.61903
L2C INSTRUCTION PREFETCH MPKI: 0
L2C WRITEBACK ACCESS:   13416987  HIT:   12612765  MISS:     804222  HIT %:    94.0059  MISS %:    5.99406   MPKI: 4.02111
L2C LOAD TRANSLATION ACCESS:     149764  HIT:     135091  MISS:      14673  HIT %:    90.2026  MISS %:    9.79741   MPKI: 0.073365
L2C TRANSLATION FROM L1D PREFETCHER ACCESS:     477058  HIT:     471394  MISS:       5664  HIT %:    98.8127  MISS %:    1.18728   MPKI: 0.02832
L2C PREFETCH  REQUESTED:          0  ISSUED:          0  USEFUL:    1440168  USELESS:     490870
L2C USEFUL LOAD PREFETCHES:    1440168 PREFETCH ISSUED TO LOWER LEVEL:    1998675  ACCURACY: 72.0561
L2C TIMELY PREFETCHES:    1440168 LATE PREFETCHES: 74867 DROPPED PREFETCHES: 0
L2C PREFETCHES SAME FILL-ORIGIN LEVEL: 1881887 DIFFERENT FILL-ORIGIN LEVEL: 0
L2C AVERAGE MISS LATENCY: 590.234 cycles
L2C RQ	ACCESS:   15958452	FORWARD:          0	MERGED:          0	TO_CACHE:   15958447
L2C WQ	ACCESS:   13416987	FORWARD:          5	MERGED:          0	TO_CACHE:   13416987
L2C PQ	ACCESS:    6666023	FORWARD:          0	MERGED:       2600	TO_CACHE:    6663423

L2C Instructions Evicting Data 0
L2C Translations Evicting Data 20270
L2C Data Evicting Data 9753617
L2C Instructions Evicting Instructions 0
L2C Translations Evicting Instructions 0
L2C Data Evicting Instructions 0
L2C Instructions Evicting Translations 0
L2C Translations Evicting Translations 67
L2C Data Evicting Translations 19000
L2C Dense regions hint from L2: 0
PSCL5 TOTAL     ACCESS:     622270  HIT:     622270  MISS:          0  HIT %:        100  MISS %:          0   MPKI: 0
PSCL5 LOAD TRANSLATION ACCESS:     149760  HIT:     149760  MISS:          0  HIT %:        100  MISS %:          0   MPKI: 0
PSCL5 TRANSLATION FROM L1D PREFETCHER ACCESS:     472510  HIT:     472510  MISS:          0  HIT %:        100  MISS %:          0   MPKI: 0
PSCL5 PREFETCH  REQUESTED:          0  ISSUED:          0  USEFUL:          0  USELESS:          0
PSCL5 USEFUL LOAD PREFETCHES:          0 PREFETCH ISSUED TO LOWER LEVEL:          0  ACCURACY: -nan
PSCL5 TIMELY PREFETCHES:          0 LATE PREFETCHES: 0 DROPPED PREFETCHES: 0
PSCL5 PREFETCHES SAME FILL-ORIGIN LEVEL: 0 DIFFERENT FILL-ORIGIN LEVEL: 0

PSCL4 TOTAL     ACCESS:     622270  HIT:     622270  MISS:          0  HIT %:        100  MISS %:          0   MPKI: 0
PSCL4 LOAD TRANSLATION ACCESS:     149760  HIT:     149760  MISS:          0  HIT %:        100  MISS %:          0   MPKI: 0
PSCL4 TRANSLATION FROM L1D PREFETCHER ACCESS:     472510  HIT:     472510  MISS:          0  HIT %:        100  MISS %:          0   MPKI: 0
PSCL4 PREFETCH  REQUESTED:          0  ISSUED:          0  USEFUL:          0  USELESS:          0
PSCL4 USEFUL LOAD PREFETCHES:          0 PREFETCH ISSUED TO LOWER LEVEL:          0  ACCURACY: -nan
PSCL4 TIMELY PREFETCHES:          0 LATE PREFETCHES: 0 DROPPED PREFETCHES: 0
PSCL4 PREFETCHES SAME FILL-ORIGIN LEVEL: 0 DIFFERENT FILL-ORIGIN LEVEL: 0

PSCL3 TOTAL     ACCESS:     622270  HIT:     622270  MISS:          0  HIT %:        100  MISS %:          0   MPKI: 0
PSCL3 LOAD TRANSLATION ACCESS:     149760  HIT:     149760  MISS:          0  HIT %:        100  MISS %:          0   MPKI: 0
PSCL3 TRANSLATION FROM L1D PREFETCHER ACCESS:     472510  HIT:     472510  MISS:          0  HIT %:        100  MISS %:          0   MPKI: 0
PSCL3 PREFETCH  REQUESTED:          0  ISSUED:          0  USEFUL:          0  USELESS:          0
PSCL3 USEFUL LOAD PREFETCHES:          0 PREFETCH ISSUED TO LOWER LEVEL:          0  ACCURACY: -nan
PSCL3 TIMELY PREFETCHES:          0 LATE PREFETCHES: 0 DROPPED PREFETCHES: 0
PSCL3 PREFETCHES SAME FILL-ORIGIN LEVEL: 0 DIFFERENT FILL-ORIGIN LEVEL: 0

PSCL2 TOTAL     ACCESS:     616734  HIT:     616584  MISS:        150  HIT %:    99.9757  MISS %:  0.0243217   MPKI: 0.00075
PSCL2 LOAD TRANSLATION ACCESS:     149760  HIT:     149610  MISS:        150  HIT %:    99.8998  MISS %:    0.10016   MPKI: 0.00075
PSCL2 TRANSLATION FROM L1D PREFETCHER ACCESS:     466974  HIT:     466974  MISS:          0  HIT %:        100  MISS %:          0   MPKI: 0
PSCL2 PREFETCH  REQUESTED:          0  ISSUED:          0  USEFUL:          0  USELESS:          0
PSCL2 USEFUL LOAD PREFETCHES:          0 PREFETCH ISSUED TO LOWER LEVEL:          0  ACCURACY: -nan
PSCL2 TIMELY PREFETCHES:          0 LATE PREFETCHES: 0 DROPPED PREFETCHES: 0
PSCL2 PREFETCHES SAME FILL-ORIGIN LEVEL: 0 DIFFERENT FILL-ORIGIN LEVEL: 0

LLC TOTAL     ACCESS:   17180635  HIT:    5376961  MISS:   11803674  HIT %:    31.2966  MISS %:    68.7034   MPKI: 59.0184
LLC LOAD      ACCESS:     405044  HIT:       1029  MISS:     404015  HIT %:   0.254046  MISS %:     99.746   MPKI: 2.02007
LLC RFO       ACCESS:    7368786  HIT:     181412  MISS:    7187374  HIT %:     2.4619  MISS %:    97.5381   MPKI: 35.9369
LLC PREFETCH  ACCESS:    1998674  HIT:       5461  MISS:    1993213  HIT %:   0.273231  MISS %:    99.7268   MPKI: 9.96606
LLC WRITEBACK ACCESS:    7387794  HIT:    5187871  MISS:    2199923  HIT %:    70.2222  MISS %:    29.7778   MPKI: 10.9996
LLC LOAD TRANSLATION ACCESS:      14673  HIT:        427  MISS:      14246  HIT %:    2.91011  MISS %:    97.0899   MPKI: 0.07123
LLC TRANSLATION FROM L1D PREFETCHER ACCESS:       5664  HIT:        761  MISS:       4903  HIT %:    13.4357  MISS %:    86.5643   MPKI: 0.024515
LLC PREFETCH  REQUESTED:          0  ISSUED:          0  USEFUL:       1041  USELESS:    2004765
LLC USEFUL LOAD PREFETCHES:       1041 PREFETCH ISSUED TO LOWER LEVEL:    1993214  ACCURACY: 0.0522272
LLC TIMELY PREFETCHES:       1041 LATE PREFETCHES: 0 DROPPED PREFETCHES: 0
LLC PREFETCHES SAME FILL-ORIGIN LEVEL: 0 DIFFERENT FILL-ORIGIN LEVEL: 0
LLC AVERAGE MISS LATENCY: 508.331 cycles
LLC RQ	ACCESS:    7794290	FORWARD:          0	MERGED:          0	TO_CACHE:    7794177
LLC WQ	ACCESS:    7387794	FORWARD:        113	MERGED:          0	TO_CACHE:    7387794
LLC PQ	ACCESS:    1998675	FORWARD:          0	MERGED:          0	TO_CACHE:    1998675

LLC Dense regions hint to LLC: 0

RAW hits: 2679252
Loads Generated: 52231474
Loads sent to L1D: 49552221
Stores Generated: 36944938
Stores sent to L1D: 36944937
Major fault: 0 Minor fault: 96650
Allocated PAGES: 96650

DRAM Statistics
 CHANNEL 0
 RQ ROW_BUFFER_HIT:    1059496  ROW_BUFFER_MISS:    8544255
 DBUS_CONGESTED:          0
 WQ ROW_BUFFER_HIT:    1140670  ROW_BUFFER_MISS:    6033346  FULL:       6788

 AVG_CONGESTED_CYCLE: -
 All warmup complete: 2
Channel 0 Bank busy for read cycles: 0
Channel 0 Bank busy for write cycles: 0
Channel 0
Rank 0
0banks busy for read cycles: 55687
0banks busy for write cycles: 0
1banks busy for read cycles: 4348548
1banks busy for write cycles: 709613
2banks busy for read cycles: 6314337
2banks busy for write cycles: 709606
3banks busy for read cycles: 11256005
3banks busy for write cycles: 709592
4banks busy for read cycles: 18105125
4banks busy for write cycles: 709581
5banks busy for read cycles: 36403802
5banks busy for write cycles: 709824
6banks busy for read cycles: 48500853
6banks busy for write cycles: 758296
7banks busy for read cycles: 59209078
7banks busy for write cycles: 9071120
8banks busy for read cycles: 65334031
8banks busy for write cycles: 155743081

CPU 0 Branch Prediction Accuracy: 96.5225% MPKI: 0.5249 Average ROB Occupancy at Mispredict: 189.17
Branch types
NOT_BRANCH: 196389972 98.195%
BRANCH_DIRECT_JUMP: 590927 0.295463%
BRANCH_INDIRECT: 0 0%
BRANCH_CONDITIONAL: 3018804 1.5094%
BRANCH_DIRECT_CALL: 0 0%
BRANCH_INDIRECT_CALL: 0 0%
BRANCH_RETURN: 0 0%
BRANCH_OTHER: 0 0%

DRAM PAGES: 1048576
Allocated PAGES: 96650
