526208 bits of metadata so far, 405638 left out of 526336 total budget
table size is 13521 bits, 2253 entries for 5 bit, 1931 entries for 6 bit
526208 total bits (64.23KB)

*** ChampSim Multicore Out-of-Order Simulator ***

Warmup Instructions: 50000000
Simulation Instructions: 200000000
Number of CPUs: 1
LLC sets: 2048
LLC ways: 16
Off-chip DRAM Size: 4096 MB Channels: 1 Width: 64-bit Data Rate: 6400 MT/s
argv[0]: ./ChampSim/Berti/bin/multiperspective_perceptron-no-vberti-no-no-no-no-no-lru-lru-lru-srrip-drrip-lru-lru-lru-1core-no
argv[1]: -warmup_instructions
argv[2]: 50000000
argv[3]: -simulation_instructions
argv[4]: 200000000
argv[5]: -traces
argv[6]: traces/spec2k17_ten/619.lbm_s-4268B.champsimtrace.xz
CPU 0 runs traces/spec2k17_ten/619.lbm_s-4268B.champsimtrace.xz
.xz
CPU 0 Multiperspective perceptron branch predictor
BTB has LRU replacement policy
ITLB has LRU replacement policy
DTLB has LRU replacement policy
STLB has LRU replacement policy
L1I has LRU replacement policy
History Sets: 8
History Ways: 16
BERTI Size: 16
BERTI Stride Size: 16
L1D has LRU replacement policy
Initialize SRRIP state for L2C
Initialize DRRIP state for LLC
Heartbeat CPU 0 instructions: 10000000 cycles: 2915981 heartbeat IPC: 3.42938 cumulative IPC: 3.42938 (Simulation time: 0 hr 7 min 31 sec) 
Heartbeat CPU 0 instructions: 20000001 cycles: 5830718 heartbeat IPC: 3.43084 cumulative IPC: 3.43011 (Simulation time: 0 hr 8 min 53 sec) 
Heartbeat CPU 0 instructions: 30000000 cycles: 8740639 heartbeat IPC: 3.43652 cumulative IPC: 3.43224 (Simulation time: 0 hr 15 min 56 sec) 
Heartbeat CPU 0 instructions: 40000000 cycles: 11657878 heartbeat IPC: 3.4279 cumulative IPC: 3.43116 (Simulation time: 0 hr 20 min 22 sec) 
Heartbeat CPU 0 instructions: 50000002 cycles: 14575620 heartbeat IPC: 3.42731 cumulative IPC: 3.43039 (Simulation time: 0 hr 25 min 55 sec) 

Warmup complete CPU 0 instructions: 50000002 cycles: 14575620 (Simulation time: 0 hr 25 min 55 sec) 

Heartbeat CPU 0 instructions: 60000001 cycles: 35777527 heartbeat IPC: 0.471656 cumulative IPC: 0.471656 (Simulation time: 0 hr 34 min 24 sec) 
Heartbeat CPU 0 instructions: 70000002 cycles: 56621436 heartbeat IPC: 0.479757 cumulative IPC: 0.475672 (Simulation time: 0 hr 43 min 11 sec) 
Heartbeat CPU 0 instructions: 80000000 cycles: 77213942 heartbeat IPC: 0.485613 cumulative IPC: 0.47894 (Simulation time: 0 hr 51 min 15 sec) 
Heartbeat CPU 0 instructions: 90000000 cycles: 98113347 heartbeat IPC: 0.478483 cumulative IPC: 0.478826 (Simulation time: 0 hr 59 min 52 sec) 
Heartbeat CPU 0 instructions: 100000001 cycles: 118631204 heartbeat IPC: 0.48738 cumulative IPC: 0.480512 (Simulation time: 1 hr 6 min 28 sec) 
Heartbeat CPU 0 instructions: 110000000 cycles: 139450875 heartbeat IPC: 0.480315 cumulative IPC: 0.480479 (Simulation time: 1 hr 14 min 21 sec) 
Heartbeat CPU 0 instructions: 120000001 cycles: 160581781 heartbeat IPC: 0.473241 cumulative IPC: 0.479432 (Simulation time: 1 hr 23 min 7 sec) 
Heartbeat CPU 0 instructions: 130000001 cycles: 181074090 heartbeat IPC: 0.487988 cumulative IPC: 0.480485 (Simulation time: 1 hr 30 min 14 sec) 
Heartbeat CPU 0 instructions: 140000000 cycles: 201935540 heartbeat IPC: 0.479353 cumulative IPC: 0.480359 (Simulation time: 1 hr 36 min 6 sec) 
Heartbeat CPU 0 instructions: 150000003 cycles: 222937198 heartbeat IPC: 0.476153 cumulative IPC: 0.479935 (Simulation time: 1 hr 40 min 31 sec) 
Heartbeat CPU 0 instructions: 160000003 cycles: 244262555 heartbeat IPC: 0.468925 cumulative IPC: 0.478913 (Simulation time: 1 hr 44 min 54 sec) 
Heartbeat CPU 0 instructions: 170000002 cycles: 265400097 heartbeat IPC: 0.473092 cumulative IPC: 0.478422 (Simulation time: 1 hr 48 min 31 sec) 
Heartbeat CPU 0 instructions: 180000001 cycles: 286441679 heartbeat IPC: 0.475249 cumulative IPC: 0.478177 (Simulation time: 1 hr 51 min 35 sec) 
Heartbeat CPU 0 instructions: 190000002 cycles: 307704523 heartbeat IPC: 0.470304 cumulative IPC: 0.477606 (Simulation time: 1 hr 53 min 55 sec) 
Heartbeat CPU 0 instructions: 200000000 cycles: 328838758 heartbeat IPC: 0.473166 cumulative IPC: 0.477307 (Simulation time: 1 hr 55 min 54 sec) 
Heartbeat CPU 0 instructions: 210000001 cycles: 350262992 heartbeat IPC: 0.466761 cumulative IPC: 0.476634 (Simulation time: 1 hr 57 min 12 sec) 
Heartbeat CPU 0 instructions: 220000000 cycles: 371525679 heartbeat IPC: 0.470307 cumulative IPC: 0.476257 (Simulation time: 1 hr 58 min 38 sec) 
Heartbeat CPU 0 instructions: 230000000 cycles: 392953112 heartbeat IPC: 0.466691 cumulative IPC: 0.475715 (Simulation time: 1 hr 59 min 54 sec) 
Heartbeat CPU 0 instructions: 240000002 cycles: 414298227 heartbeat IPC: 0.468491 cumulative IPC: 0.47533 (Simulation time: 2 hr 1 min 8 sec) 
Heartbeat CPU 0 instructions: 250000002 cycles: 435031044 heartbeat IPC: 0.482327 cumulative IPC: 0.475675 (Simulation time: 2 hr 2 min 19 sec) 
Finished CPU 0 instructions: 200000000 cycles: 420455424 cumulative IPC: 0.475675 (Simulation time: 2 hr 2 min 19 sec) 

ChampSim completed all CPUs

Region of Interest Statistics

CPU 0 cumulative IPC: 0.475675 instructions: 200000000 cycles: 420455424
ITLB TOTAL     ACCESS:   26848369  HIT:   26848369  MISS:          0  HIT %:        100  MISS %:          0   MPKI: 0
ITLB LOAD TRANSLATION ACCESS:   26848369  HIT:   26848369  MISS:          0  HIT %:        100  MISS %:          0   MPKI: 0
ITLB PREFETCH  REQUESTED:          0  ISSUED:          0  USEFUL:          0  USELESS:          0
ITLB USEFUL LOAD PREFETCHES:          0 PREFETCH ISSUED TO LOWER LEVEL:          0  ACCURACY: -nan
ITLB TIMELY PREFETCHES:          0 LATE PREFETCHES: 0 DROPPED PREFETCHES: 0
ITLB PREFETCHES SAME FILL-ORIGIN LEVEL: 0 DIFFERENT FILL-ORIGIN LEVEL: 0
ITLB AVERAGE MISS LATENCY: -nan cycles
ITLB RQ	ACCESS:   34650160	FORWARD:          0	MERGED:    7801791	TO_CACHE:   26848369

DTLB TOTAL     ACCESS:   38242258  HIT:   37965731  MISS:     276527  HIT %:    99.2769  MISS %:   0.723093   MPKI: 1.38264
DTLB LOAD TRANSLATION ACCESS:   38242258  HIT:   37965731  MISS:     276527  HIT %:    99.2769  MISS %:   0.723093   MPKI: 1.38264
DTLB PREFETCH  REQUESTED:          0  ISSUED:          0  USEFUL:          0  USELESS:          0
DTLB USEFUL LOAD PREFETCHES:          0 PREFETCH ISSUED TO LOWER LEVEL:          0  ACCURACY: -nan
DTLB TIMELY PREFETCHES:          0 LATE PREFETCHES: 0 DROPPED PREFETCHES: 0
DTLB PREFETCHES SAME FILL-ORIGIN LEVEL: 0 DIFFERENT FILL-ORIGIN LEVEL: 0
DTLB AVERAGE MISS LATENCY: 103.755 cycles
DTLB RQ	ACCESS:   56182058	FORWARD:          0	MERGED:   17808111	TO_CACHE:   38373947

STLB TOTAL     ACCESS:    1461236  HIT:    1311212  MISS:     150024  HIT %:    89.7331  MISS %:    10.2669   MPKI: 0.75012
STLB LOAD TRANSLATION ACCESS:     276527  HIT:     126503  MISS:     150024  HIT %:    45.7471  MISS %:    54.2529   MPKI: 0.75012
STLB TRANSLATION FROM L1D PREFETCHER ACCESS:    1184709  HIT:    1184709  MISS:          0  HIT %:        100  MISS %:          0   MPKI: 0
STLB PREFETCH  REQUESTED:          0  ISSUED:          0  USEFUL:          0  USELESS:          0
STLB USEFUL LOAD PREFETCHES:          0 PREFETCH ISSUED TO LOWER LEVEL:          0  ACCURACY: -nan
STLB TIMELY PREFETCHES:          0 LATE PREFETCHES: 3336 DROPPED PREFETCHES: 507446
STLB PREFETCHES SAME FILL-ORIGIN LEVEL: 0 DIFFERENT FILL-ORIGIN LEVEL: 0
STLB AVERAGE MISS LATENCY: 172.789 cycles
STLB RQ	ACCESS:   11019485	FORWARD:          0	MERGED:    8992209	TO_CACHE:    2027276

STLB Hit, L1D data hit: 0
STLB Hit, L2C data hit: 0
STLB Hit, LLC data hit: 0
STLB Hit, LLC data miss: 0
STLB STLB hints to L2: 0
L1D TOTAL     ACCESS:   57833518  HIT:   41985672  MISS:   15847846  HIT %:    72.5975  MISS %:    27.4025   MPKI: 79.2392
L1D LOAD      ACCESS:   19610687  HIT:   17627689  MISS:    1982998  HIT %:    89.8882  MISS %:    10.1118   MPKI: 9.91499
L1D RFO       ACCESS:   36043875  HIT:   22603182  MISS:   13440693  HIT %:    62.7102  MISS %:    37.2898   MPKI: 67.2035
L1D PREFETCH  ACCESS:    2178956  HIT:    1754801  MISS:     424155  HIT %:     80.534  MISS %:     19.466   MPKI: 2.12078
L1D PREFETCH  REQUESTED:   33680280  ISSUED:   22677426  USEFUL:     417495  USELESS:       6680
L1D USEFUL LOAD PREFETCHES:     417495 PREFETCH ISSUED TO LOWER LEVEL:    6833580  ACCURACY: 6.10946
L1D TIMELY PREFETCHES:     417495 LATE PREFETCHES: 10522 DROPPED PREFETCHES: 1982776
L1D PREFETCHES SAME FILL-ORIGIN LEVEL: 434961 DIFFERENT FILL-ORIGIN LEVEL: 6398619
L1D AVERAGE MISS LATENCY: 337.593 cycles
L1D RQ	ACCESS:   49549427	FORWARD:          0	MERGED:   26872689	TO_CACHE:   19920951
L1D WQ	ACCESS:   36967903	FORWARD:    2755787	MERGED:     706796	TO_CACHE:   36261107
L1D PQ	ACCESS:   11934468	FORWARD:          0	MERGED:    1191510	TO_CACHE:   10742958

L1D UNIQUE REGIONS ACCESSED: 0
L1D REGIONS CONFLICTS: 0
L1D Cross Page Prefetch Requests: 3854038
L1D Same Page Prefetch Requests: 13285759
L1D ROI Sum of L1D PQ occupancy: 2588588013
L1D PREFETCHES PUSHED FROM L2C: 0
L1I TOTAL     ACCESS:   34650158  HIT:   34650158  MISS:          0  HIT %:        100  MISS %:          0   MPKI: 0
L1I LOAD      ACCESS:   34650158  HIT:   34650158  MISS:          0  HIT %:        100  MISS %:          0   MPKI: 0
L1I PREFETCH  REQUESTED:          0  ISSUED:          0  USEFUL:          0  USELESS:          0
L1I USEFUL LOAD PREFETCHES:          0 PREFETCH ISSUED TO LOWER LEVEL:          0  ACCURACY: -nan
L1I TIMELY PREFETCHES:          0 LATE PREFETCHES: 0 DROPPED PREFETCHES: 0
L1I PREFETCHES SAME FILL-ORIGIN LEVEL: 0 DIFFERENT FILL-ORIGIN LEVEL: 0
L1I AVERAGE MISS LATENCY: -nan cycles
L1I RQ	ACCESS:   49717061	FORWARD:          0	MERGED:   15066901	TO_CACHE:   34650160

BTB TOTAL     ACCESS:    3614433  HIT:    3614427  MISS:          6  HIT %:    99.9998  MISS %: 0.000166001   MPKI: 3e-05
BTB BRANCH_DIRECT_JUMP	ACCESS:     592790  HIT:     592789  MISS:          1
BTB BRANCH_INDIRECT	ACCESS:          0  HIT:          0  MISS:          0
BTB BRANCH_CONDITIONAL	ACCESS:    3021643  HIT:    3021638  MISS:          5
BTB BRANCH_DIRECT_CALL	ACCESS:          0  HIT:          0  MISS:          0
BTB BRANCH_INDIRECT_CALL	ACCESS:          0  HIT:          0  MISS:          0
BTB BRANCH_RETURN	ACCESS:          0  HIT:          0  MISS:          0
BTB BRANCH_OTHER ACCESS:          0  HIT:          0  MISS:          0

L2C TOTAL     ACCESS:   35835211  HIT:   25258869  MISS:   10576342  HIT %:    70.4862  MISS %:    29.5138   MPKI: 52.8817
L2C LOAD      ACCESS:    1972476  HIT:    1490165  MISS:     482311  HIT %:    75.5479  MISS %:    24.4521   MPKI: 2.41155
L2C DATA LOAD MPKI: 2.41155
L2C INSTRUCTION LOAD MPKI: 0
L2C RFO       ACCESS:   13440683  HIT:    6049835  MISS:    7390848  HIT %:    45.0114  MISS %:    54.9886   MPKI: 36.9542
L2C PREFETCH  ACCESS:    6278450  HIT:    4355295  MISS:    1923155  HIT %:     69.369  MISS %:     30.631   MPKI: 9.61577
L2C DATA PREFETCH MPKI: 9.61577
L2C INSTRUCTION PREFETCH MPKI: 0
L2C WRITEBACK ACCESS:   13440681  HIT:   12680478  MISS:     760203  HIT %:     94.344  MISS %:    5.65599   MPKI: 3.80102
L2C LOAD TRANSLATION ACCESS:     150028  HIT:     135302  MISS:      14726  HIT %:    90.1845  MISS %:     9.8155   MPKI: 0.07363
L2C TRANSLATION FROM L1D PREFETCHER ACCESS:     552893  HIT:     547794  MISS:       5099  HIT %:    99.0778  MISS %:    0.92224   MPKI: 0.025495
L2C PREFETCH  REQUESTED:          0  ISSUED:          0  USEFUL:    1495087  USELESS:     434180
L2C USEFUL LOAD PREFETCHES:    1495087 PREFETCH ISSUED TO LOWER LEVEL:    1999085  ACCURACY: 74.7886
L2C TIMELY PREFETCHES:    1495087 LATE PREFETCHES: 75927 DROPPED PREFETCHES: 0
L2C PREFETCHES SAME FILL-ORIGIN LEVEL: 1887773 DIFFERENT FILL-ORIGIN LEVEL: 0
L2C AVERAGE MISS LATENCY: 593.595 cycles
L2C RQ	ACCESS:   16116104	FORWARD:          0	MERGED:          0	TO_CACHE:   16116094
L2C WQ	ACCESS:   13440681	FORWARD:         10	MERGED:          0	TO_CACHE:   13440681
L2C PQ	ACCESS:    6702988	FORWARD:          0	MERGED:       2938	TO_CACHE:    6700050

L2C Instructions Evicting Data 0
L2C Translations Evicting Data 19759
L2C Data Evicting Data 9777774
L2C Instructions Evicting Instructions 0
L2C Translations Evicting Instructions 0
L2C Data Evicting Instructions 0
L2C Instructions Evicting Translations 0
L2C Translations Evicting Translations 66
L2C Data Evicting Translations 18540
L2C Dense regions hint from L2: 0
PSCL5 TOTAL     ACCESS:     660806  HIT:     660806  MISS:          0  HIT %:        100  MISS %:          0   MPKI: 0
PSCL5 LOAD TRANSLATION ACCESS:     150024  HIT:     150024  MISS:          0  HIT %:        100  MISS %:          0   MPKI: 0
PSCL5 TRANSLATION FROM L1D PREFETCHER ACCESS:     510782  HIT:     510782  MISS:          0  HIT %:        100  MISS %:          0   MPKI: 0
PSCL5 PREFETCH  REQUESTED:          0  ISSUED:          0  USEFUL:          0  USELESS:          0
PSCL5 USEFUL LOAD PREFETCHES:          0 PREFETCH ISSUED TO LOWER LEVEL:          0  ACCURACY: -nan
PSCL5 TIMELY PREFETCHES:          0 LATE PREFETCHES: 0 DROPPED PREFETCHES: 0
PSCL5 PREFETCHES SAME FILL-ORIGIN LEVEL: 0 DIFFERENT FILL-ORIGIN LEVEL: 0

PSCL4 TOTAL     ACCESS:     660806  HIT:     660806  MISS:          0  HIT %:        100  MISS %:          0   MPKI: 0
PSCL4 LOAD TRANSLATION ACCESS:     150024  HIT:     150024  MISS:          0  HIT %:        100  MISS %:          0   MPKI: 0
PSCL4 TRANSLATION FROM L1D PREFETCHER ACCESS:     510782  HIT:     510782  MISS:          0  HIT %:        100  MISS %:          0   MPKI: 0
PSCL4 PREFETCH  REQUESTED:          0  ISSUED:          0  USEFUL:          0  USELESS:          0
PSCL4 USEFUL LOAD PREFETCHES:          0 PREFETCH ISSUED TO LOWER LEVEL:          0  ACCURACY: -nan
PSCL4 TIMELY PREFETCHES:          0 LATE PREFETCHES: 0 DROPPED PREFETCHES: 0
PSCL4 PREFETCHES SAME FILL-ORIGIN LEVEL: 0 DIFFERENT FILL-ORIGIN LEVEL: 0

PSCL3 TOTAL     ACCESS:     660806  HIT:     660806  MISS:          0  HIT %:        100  MISS %:          0   MPKI: 0
PSCL3 LOAD TRANSLATION ACCESS:     150024  HIT:     150024  MISS:          0  HIT %:        100  MISS %:          0   MPKI: 0
PSCL3 TRANSLATION FROM L1D PREFETCHER ACCESS:     510782  HIT:     510782  MISS:          0  HIT %:        100  MISS %:          0   MPKI: 0
PSCL3 PREFETCH  REQUESTED:          0  ISSUED:          0  USEFUL:          0  USELESS:          0
PSCL3 USEFUL LOAD PREFETCHES:          0 PREFETCH ISSUED TO LOWER LEVEL:          0  ACCURACY: -nan
PSCL3 TIMELY PREFETCHES:          0 LATE PREFETCHES: 0 DROPPED PREFETCHES: 0
PSCL3 PREFETCHES SAME FILL-ORIGIN LEVEL: 0 DIFFERENT FILL-ORIGIN LEVEL: 0

PSCL2 TOTAL     ACCESS:     617599  HIT:     617449  MISS:        150  HIT %:    99.9757  MISS %:  0.0242876   MPKI: 0.00075
PSCL2 LOAD TRANSLATION ACCESS:     150024  HIT:     149874  MISS:        150  HIT %:       99.9  MISS %:   0.099984   MPKI: 0.00075
PSCL2 TRANSLATION FROM L1D PREFETCHER ACCESS:     467575  HIT:     467575  MISS:          0  HIT %:        100  MISS %:          0   MPKI: 0
PSCL2 PREFETCH  REQUESTED:          0  ISSUED:          0  USEFUL:          0  USELESS:          0
PSCL2 USEFUL LOAD PREFETCHES:          0 PREFETCH ISSUED TO LOWER LEVEL:          0  ACCURACY: -nan
PSCL2 TIMELY PREFETCHES:          0 LATE PREFETCHES: 0 DROPPED PREFETCHES: 0
PSCL2 PREFETCHES SAME FILL-ORIGIN LEVEL: 0 DIFFERENT FILL-ORIGIN LEVEL: 0

LLC TOTAL     ACCESS:   17228117  HIT:    7155623  MISS:   10072494  HIT %:    41.5346  MISS %:    58.4654   MPKI: 50.3625
LLC LOAD      ACCESS:     406384  HIT:       1174  MISS:     405210  HIT %:   0.288889  MISS %:    99.7111   MPKI: 2.02605
LLC RFO       ACCESS:    7390724  HIT:     190714  MISS:    7200010  HIT %:    2.58045  MISS %:    97.4195   MPKI: 36.0001
LLC PREFETCH  ACCESS:    1999082  HIT:       3838  MISS:    1995244  HIT %:   0.191988  MISS %:     99.808   MPKI: 9.97622
LLC WRITEBACK ACCESS:    7412102  HIT:    6959156  MISS:     452946  HIT %:    93.8891  MISS %:     6.1109   MPKI: 2.26473
LLC LOAD TRANSLATION ACCESS:      14726  HIT:        546  MISS:      14180  HIT %:    3.70773  MISS %:    96.2923   MPKI: 0.0709
LLC TRANSLATION FROM L1D PREFETCHER ACCESS:       5099  HIT:        195  MISS:       4904  HIT %:    3.82428  MISS %:    96.1757   MPKI: 0.02452
LLC PREFETCH  REQUESTED:          0  ISSUED:          0  USEFUL:       1138  USELESS:    1995586
LLC USEFUL LOAD PREFETCHES:       1138 PREFETCH ISSUED TO LOWER LEVEL:    1995246  ACCURACY: 0.0570356
LLC TIMELY PREFETCHES:       1138 LATE PREFETCHES: 0 DROPPED PREFETCHES: 0
LLC PREFETCHES SAME FILL-ORIGIN LEVEL: 0 DIFFERENT FILL-ORIGIN LEVEL: 0
LLC AVERAGE MISS LATENCY: 598.047 cycles
LLC RQ	ACCESS:    7817071	FORWARD:          0	MERGED:          0	TO_CACHE:    7816947
LLC WQ	ACCESS:    7412102	FORWARD:        124	MERGED:          0	TO_CACHE:    7412102
LLC PQ	ACCESS:    1999085	FORWARD:          0	MERGED:          0	TO_CACHE:    1999085

LLC Dense regions hint to LLC: 0

RAW hits: 2699769
Loads Generated: 52249198
Loads sent to L1D: 49549427
Stores Generated: 36967886
Stores sent to L1D: 36967903
Major fault: 0 Minor fault: 96698
Allocated PAGES: 96698

DRAM Statistics
 CHANNEL 0
 RQ ROW_BUFFER_HIT:    1048706  ROW_BUFFER_MISS:    8570840
 DBUS_CONGESTED:          0
 WQ ROW_BUFFER_HIT:    1124439  ROW_BUFFER_MISS:    6080631  FULL:       3242

 AVG_CONGESTED_CYCLE: -
 All warmup complete: 2
Channel 0 Bank busy for read cycles: 0
Channel 0 Bank busy for write cycles: 0
Channel 0
Rank 0
0banks busy for read cycles: 55766
0banks busy for write cycles: 0
1banks busy for read cycles: 4467075
1banks busy for write cycles: 713713
2banks busy for read cycles: 6393009
2banks busy for write cycles: 713709
3banks busy for read cycles: 11399158
3banks busy for write cycles: 713702
4banks busy for read cycles: 18307439
4banks busy for write cycles: 713696
5banks busy for read cycles: 36369493
5banks busy for write cycles: 713760
6banks busy for read cycles: 48454523
6banks busy for write cycles: 738708
7banks busy for read cycles: 58979565
7banks busy for write cycles: 8621739
8banks busy for read cycles: 65478389
8banks busy for write cycles: 157621981

CPU 0 Branch Prediction Accuracy: 96.5208% MPKI: 0.52564 Average ROB Occupancy at Mispredict: 191.844
Branch types
NOT_BRANCH: 196385257 98.1926%
BRANCH_DIRECT_JUMP: 592790 0.296395%
BRANCH_INDIRECT: 0 0%
BRANCH_CONDITIONAL: 3021643 1.51082%
BRANCH_DIRECT_CALL: 0 0%
BRANCH_INDIRECT_CALL: 0 0%
BRANCH_RETURN: 0 0%
BRANCH_OTHER: 0 0%

DRAM PAGES: 1048576
Allocated PAGES: 96698
