
*** ChampSim Multicore Out-of-Order Simulator ***

Warmup Instructions: 50000000
Simulation Instructions: 200000000
Number of CPUs: 1
LLC sets: 2048
LLC ways: 16
Off-chip DRAM Size: 4096 MB Channels: 1 Width: 64-bit Data Rate: 6400 MT/s
argv[0]: ./ChampSim/Berti/bin/hashed_perceptron-no-vberti-no-no-no-no-no-lru-lru-lru-srrip-drrip-lru-lru-lru-1core-no
argv[1]: -warmup_instructions
argv[2]: 50000000
argv[3]: -simulation_instructions
argv[4]: 200000000
argv[5]: -traces
argv[6]: traces/spec2k17_ten/648.exchange2_s-1699B.champsimtrace.xz
CPU 0 runs traces/spec2k17_ten/648.exchange2_s-1699B.champsimtrace.xz
.xz
BTB has LRU replacement policy
ITLB has LRU replacement policy
DTLB has LRU replacement policy
STLB has LRU replacement policy
L1I has LRU replacement policy
History Sets: 8
History Ways: 16
BERTI Size: 16
BERTI Stride Size: 16
L1D has LRU replacement policy
Initialize SRRIP state for L2C
Initialize DRRIP state for LLC
Heartbeat CPU 0 instructions: 10000002 cycles: 2668032 heartbeat IPC: 3.74808 cumulative IPC: 3.74808 (Simulation time: 0 hr 1 min 50 sec) 
Heartbeat CPU 0 instructions: 20000001 cycles: 5334878 heartbeat IPC: 3.74975 cumulative IPC: 3.74891 (Simulation time: 0 hr 3 min 7 sec) 
Heartbeat CPU 0 instructions: 30000000 cycles: 8002389 heartbeat IPC: 3.74881 cumulative IPC: 3.74888 (Simulation time: 0 hr 4 min 19 sec) 
Heartbeat CPU 0 instructions: 40000001 cycles: 10688084 heartbeat IPC: 3.72343 cumulative IPC: 3.74249 (Simulation time: 0 hr 5 min 25 sec) 
Heartbeat CPU 0 instructions: 50000001 cycles: 13368227 heartbeat IPC: 3.73114 cumulative IPC: 3.74021 (Simulation time: 0 hr 6 min 41 sec) 

Warmup complete CPU 0 instructions: 50000001 cycles: 13368227 (Simulation time: 0 hr 6 min 41 sec) 

Heartbeat CPU 0 instructions: 60000000 cycles: 22530564 heartbeat IPC: 1.09142 cumulative IPC: 1.09142 (Simulation time: 0 hr 8 min 50 sec) 
Heartbeat CPU 0 instructions: 70000000 cycles: 31700333 heartbeat IPC: 1.09054 cumulative IPC: 1.09098 (Simulation time: 0 hr 10 min 44 sec) 
Heartbeat CPU 0 instructions: 80000002 cycles: 40836106 heartbeat IPC: 1.0946 cumulative IPC: 1.09218 (Simulation time: 0 hr 13 min 39 sec) 
