
*** ChampSim Multicore Out-of-Order Simulator ***

Warmup Instructions: 50000000
Simulation Instructions: 200000000
Number of CPUs: 1
LLC sets: 2048
LLC ways: 16
Off-chip DRAM Size: 4096 MB Channels: 1 Width: 64-bit Data Rate: 6400 MT/s
argv[0]: ./ChampSim/Berti/bin/hashed_perceptron-no-vberti-no-no-no-no-no-lru-lru-lru-srrip-drrip-lru-lru-lru-1core-no
argv[1]: -warmup_instructions
argv[2]: 50000000
argv[3]: -simulation_instructions
argv[4]: 200000000
argv[5]: -traces
argv[6]: traces/spec2k17_ten/648.exchange2_s-210B.champsimtrace.xz
CPU 0 runs traces/spec2k17_ten/648.exchange2_s-210B.champsimtrace.xz
.xz
BTB has LRU replacement policy
ITLB has LRU replacement policy
DTLB has LRU replacement policy
STLB has LRU replacement policy
L1I has LRU replacement policy
History Sets: 8
History Ways: 16
BERTI Size: 16
BERTI Stride Size: 16
L1D has LRU replacement policy
Initialize SRRIP state for L2C
Initialize DRRIP state for LLC
Heartbeat CPU 0 instructions: 10000003 cycles: 2678372 heartbeat IPC: 3.73361 cumulative IPC: 3.73361 (Simulation time: 0 hr 6 min 30 sec) 
Heartbeat CPU 0 instructions: 20000001 cycles: 5354838 heartbeat IPC: 3.73627 cumulative IPC: 3.73494 (Simulation time: 0 hr 7 min 49 sec) 
Heartbeat CPU 0 instructions: 30000003 cycles: 8029327 heartbeat IPC: 3.73903 cumulative IPC: 3.7363 (Simulation time: 0 hr 9 min 49 sec) 
Heartbeat CPU 0 instructions: 40000002 cycles: 10701398 heartbeat IPC: 3.74242 cumulative IPC: 3.73783 (Simulation time: 0 hr 11 min 14 sec) 
Heartbeat CPU 0 instructions: 50000001 cycles: 13380412 heartbeat IPC: 3.73272 cumulative IPC: 3.73681 (Simulation time: 0 hr 13 min 33 sec) 

Warmup complete CPU 0 instructions: 50000001 cycles: 13380412 (Simulation time: 0 hr 13 min 33 sec) 

