
*** ChampSim Multicore Out-of-Order Simulator ***

Warmup Instructions: 50000000
Simulation Instructions: 200000000
Number of CPUs: 1
LLC sets: 2048
LLC ways: 16
Off-chip DRAM Size: 4096 MB Channels: 1 Width: 64-bit Data Rate: 6400 MT/s
argv[0]: ./ChampSim/Berti/bin/hashed_perceptron-no-vberti-no-no-no-no-no-lru-lru-lru-srrip-drrip-lru-lru-lru-1core-no
argv[1]: -warmup_instructions
argv[2]: 50000000
argv[3]: -simulation_instructions
argv[4]: 200000000
argv[5]: -traces
argv[6]: traces/spec2k17_ten/648.exchange2_s-584B.champsimtrace.xz
CPU 0 runs traces/spec2k17_ten/648.exchange2_s-584B.champsimtrace.xz
.xz
BTB has LRU replacement policy
ITLB has LRU replacement policy
DTLB has LRU replacement policy
STLB has LRU replacement policy
L1I has LRU replacement policy
History Sets: 8
History Ways: 16
BERTI Size: 16
BERTI Stride Size: 16
L1D has LRU replacement policy
Initialize SRRIP state for L2C
Initialize DRRIP state for LLC
Heartbeat CPU 0 instructions: 10000001 cycles: 2688936 heartbeat IPC: 3.71894 cumulative IPC: 3.71894 (Simulation time: 0 hr 4 min 5 sec) 
Heartbeat CPU 0 instructions: 20000001 cycles: 5378671 heartbeat IPC: 3.71784 cumulative IPC: 3.71839 (Simulation time: 0 hr 8 min 8 sec) 
Heartbeat CPU 0 instructions: 30000000 cycles: 8078700 heartbeat IPC: 3.70366 cumulative IPC: 3.71347 (Simulation time: 0 hr 9 min 48 sec) 
Heartbeat CPU 0 instructions: 40000002 cycles: 10776205 heartbeat IPC: 3.70713 cumulative IPC: 3.71188 (Simulation time: 0 hr 11 min 17 sec) 
Heartbeat CPU 0 instructions: 50000000 cycles: 13471220 heartbeat IPC: 3.71055 cumulative IPC: 3.71162 (Simulation time: 0 hr 13 min 59 sec) 

Warmup complete CPU 0 instructions: 50000004 cycles: 13471221 (Simulation time: 0 hr 13 min 59 sec) 

