 (TOTAL 523355 bits 511 Kbits) 
*** ChampSim Multicore Out-of-Order Simulator ***

Warmup Instructions: 50000000
Simulation Instructions: 200000000
Number of CPUs: 1
LLC sets: 2048
LLC ways: 16
Off-chip DRAM Size: 4096 MB Channels: 1 Width: 64-bit Data Rate: 6400 MT/s
argv[0]: ./ChampSim/Berti/bin/tagescl-no-vberti-no-no-no-no-no-lru-lru-lru-srrip-drrip-lru-lru-lru-1core-no
argv[1]: -warmup_instructions
argv[2]: 50000000
argv[3]: -simulation_instructions
argv[4]: 200000000
argv[5]: -traces
argv[6]: traces/spec2k17_ten/603.bwaves_s-5359B.champsimtrace.xz
CPU 0 runs traces/spec2k17_ten/603.bwaves_s-5359B.champsimtrace.xz
.xz
CPU 0 Tage branch predictor
BTB has LRU replacement policy
ITLB has LRU replacement policy
DTLB has LRU replacement policy
STLB has LRU replacement policy
L1I has LRU replacement policy
History Sets: 8
History Ways: 16
BERTI Size: 16
BERTI Stride Size: 16
L1D has LRU replacement policy
Initialize SRRIP state for L2C
Initialize DRRIP state for LLC
Heartbeat CPU 0 instructions: 10000002 cycles: 2976010 heartbeat IPC: 3.3602 cumulative IPC: 3.3602 (Simulation time: 0 hr 3 min 33 sec) 
Heartbeat CPU 0 instructions: 20000003 cycles: 5903189 heartbeat IPC: 3.41626 cumulative IPC: 3.388 (Simulation time: 0 hr 6 min 34 sec) 
Heartbeat CPU 0 instructions: 30000000 cycles: 8862869 heartbeat IPC: 3.37874 cumulative IPC: 3.38491 (Simulation time: 0 hr 7 min 39 sec) 
Heartbeat CPU 0 instructions: 40000000 cycles: 11837835 heartbeat IPC: 3.36138 cumulative IPC: 3.379 (Simulation time: 0 hr 14 min 45 sec) 
Heartbeat CPU 0 instructions: 50000002 cycles: 14813266 heartbeat IPC: 3.36086 cumulative IPC: 3.37535 (Simulation time: 0 hr 20 min 20 sec) 

Warmup complete CPU 0 instructions: 50000002 cycles: 14813266 (Simulation time: 0 hr 20 min 20 sec) 

Heartbeat CPU 0 instructions: 60000001 cycles: 26657043 heartbeat IPC: 0.844325 cumulative IPC: 0.844325 (Simulation time: 0 hr 24 min 48 sec) 
Heartbeat CPU 0 instructions: 70000000 cycles: 38521987 heartbeat IPC: 0.842819 cumulative IPC: 0.843571 (Simulation time: 0 hr 30 min 30 sec) 
Heartbeat CPU 0 instructions: 80000001 cycles: 50397688 heartbeat IPC: 0.842056 cumulative IPC: 0.843066 (Simulation time: 0 hr 37 min 52 sec) 
Heartbeat CPU 0 instructions: 90000002 cycles: 62275410 heartbeat IPC: 0.841912 cumulative IPC: 0.842777 (Simulation time: 0 hr 44 min 15 sec) 
Heartbeat CPU 0 instructions: 100000001 cycles: 74148705 heartbeat IPC: 0.842226 cumulative IPC: 0.842667 (Simulation time: 0 hr 49 min 36 sec) 
Heartbeat CPU 0 instructions: 110000000 cycles: 86013792 heartbeat IPC: 0.842809 cumulative IPC: 0.84269 (Simulation time: 0 hr 54 min 30 sec) 
Heartbeat CPU 0 instructions: 120000003 cycles: 97894225 heartbeat IPC: 0.84172 cumulative IPC: 0.842552 (Simulation time: 0 hr 59 min 46 sec) 
Heartbeat CPU 0 instructions: 130000001 cycles: 109798103 heartbeat IPC: 0.840062 cumulative IPC: 0.84224 (Simulation time: 1 hr 4 min 35 sec) 
Heartbeat CPU 0 instructions: 140000001 cycles: 121702206 heartbeat IPC: 0.840046 cumulative IPC: 0.841995 (Simulation time: 1 hr 11 min 16 sec) 
Heartbeat CPU 0 instructions: 150000000 cycles: 133598240 heartbeat IPC: 0.840616 cumulative IPC: 0.841857 (Simulation time: 1 hr 15 min 37 sec) 
Heartbeat CPU 0 instructions: 160000003 cycles: 145530273 heartbeat IPC: 0.83808 cumulative IPC: 0.841513 (Simulation time: 1 hr 21 min 26 sec) 
Heartbeat CPU 0 instructions: 170000000 cycles: 157449024 heartbeat IPC: 0.839014 cumulative IPC: 0.841304 (Simulation time: 1 hr 27 min 38 sec) 
Heartbeat CPU 0 instructions: 180000001 cycles: 169409307 heartbeat IPC: 0.836101 cumulative IPC: 0.840901 (Simulation time: 1 hr 33 min 43 sec) 
Heartbeat CPU 0 instructions: 190000002 cycles: 181374360 heartbeat IPC: 0.835767 cumulative IPC: 0.840532 (Simulation time: 1 hr 39 min 50 sec) 
Heartbeat CPU 0 instructions: 200000000 cycles: 193436242 heartbeat IPC: 0.829058 cumulative IPC: 0.839758 (Simulation time: 1 hr 44 min 32 sec) 
Heartbeat CPU 0 instructions: 210000000 cycles: 205480609 heartbeat IPC: 0.830264 cumulative IPC: 0.839158 (Simulation time: 1 hr 50 min 39 sec) 
Heartbeat CPU 0 instructions: 220000000 cycles: 217547193 heartbeat IPC: 0.828735 cumulative IPC: 0.838538 (Simulation time: 1 hr 55 min 6 sec) 
Heartbeat CPU 0 instructions: 230000002 cycles: 229527748 heartbeat IPC: 0.834686 cumulative IPC: 0.838323 (Simulation time: 2 hr 0 min 13 sec) 
Heartbeat CPU 0 instructions: 240000001 cycles: 241502703 heartbeat IPC: 0.835076 cumulative IPC: 0.838151 (Simulation time: 2 hr 4 min 22 sec) 
Heartbeat CPU 0 instructions: 250000000 cycles: 253499335 heartbeat IPC: 0.833567 cumulative IPC: 0.837921 (Simulation time: 2 hr 8 min 59 sec) 
Finished CPU 0 instructions: 200000002 cycles: 238686070 cumulative IPC: 0.837921 (Simulation time: 2 hr 8 min 59 sec) 

ChampSim completed all CPUs

Region of Interest Statistics

CPU 0 cumulative IPC: 0.837921 instructions: 200000002 cycles: 238686070
ITLB TOTAL     ACCESS:   37519074  HIT:   37519074  MISS:          0  HIT %:        100  MISS %:          0   MPKI: 0
ITLB LOAD TRANSLATION ACCESS:   37519074  HIT:   37519074  MISS:          0  HIT %:        100  MISS %:          0   MPKI: 0
ITLB PREFETCH  REQUESTED:          0  ISSUED:          0  USEFUL:          0  USELESS:          0
ITLB USEFUL LOAD PREFETCHES:          0 PREFETCH ISSUED TO LOWER LEVEL:          0  ACCURACY: -nan
ITLB TIMELY PREFETCHES:          0 LATE PREFETCHES: 0 DROPPED PREFETCHES: 0
ITLB PREFETCHES SAME FILL-ORIGIN LEVEL: 0 DIFFERENT FILL-ORIGIN LEVEL: 0
ITLB AVERAGE MISS LATENCY: -nan cycles
ITLB RQ	ACCESS:   43654100	FORWARD:          0	MERGED:    6135027	TO_CACHE:   37519073

DTLB TOTAL     ACCESS:   27720111  HIT:   27719910  MISS:        201  HIT %:    99.9993  MISS %: 0.000725105   MPKI: 0.001005
DTLB LOAD TRANSLATION ACCESS:   27720111  HIT:   27719910  MISS:        201  HIT %:    99.9993  MISS %: 0.000725105   MPKI: 0.001005
DTLB PREFETCH  REQUESTED:          0  ISSUED:          0  USEFUL:          0  USELESS:          0
DTLB USEFUL LOAD PREFETCHES:          0 PREFETCH ISSUED TO LOWER LEVEL:          0  ACCURACY: -nan
DTLB TIMELY PREFETCHES:          0 LATE PREFETCHES: 0 DROPPED PREFETCHES: 0
DTLB PREFETCHES SAME FILL-ORIGIN LEVEL: 0 DIFFERENT FILL-ORIGIN LEVEL: 0
DTLB AVERAGE MISS LATENCY: 131.035 cycles
DTLB RQ	ACCESS:   38301430	FORWARD:          0	MERGED:   10580959	TO_CACHE:   27720471

STLB TOTAL     ACCESS:     550461  HIT:     550261  MISS:        200  HIT %:    99.9637  MISS %:  0.0363332   MPKI: 0.001
STLB LOAD TRANSLATION ACCESS:        201  HIT:          1  MISS:        200  HIT %:   0.497512  MISS %:    99.5025   MPKI: 0.001
STLB TRANSLATION FROM L1D PREFETCHER ACCESS:     550260  HIT:     550260  MISS:          0  HIT %:        100  MISS %:          0   MPKI: 0
STLB PREFETCH  REQUESTED:          0  ISSUED:          0  USEFUL:          0  USELESS:          0
STLB USEFUL LOAD PREFETCHES:          0 PREFETCH ISSUED TO LOWER LEVEL:          0  ACCURACY: -nan
STLB TIMELY PREFETCHES:          0 LATE PREFETCHES: 19 DROPPED PREFETCHES: 3052
STLB PREFETCHES SAME FILL-ORIGIN LEVEL: 0 DIFFERENT FILL-ORIGIN LEVEL: 0
STLB AVERAGE MISS LATENCY: 123.53 cycles
STLB RQ	ACCESS:     693521	FORWARD:          0	MERGED:     139977	TO_CACHE:     553544

STLB Hit, L1D data hit: 0
STLB Hit, L2C data hit: 0
STLB Hit, LLC data hit: 0
STLB Hit, LLC data miss: 0
STLB STLB hints to L2: 0
L1D TOTAL     ACCESS:   38865165  HIT:   38852076  MISS:      13089  HIT %:    99.9663  MISS %:   0.033678   MPKI: 0.065445
L1D LOAD      ACCESS:   30991715  HIT:   30991382  MISS:        333  HIT %:    99.9989  MISS %: 0.00107448   MPKI: 0.001665
L1D RFO       ACCESS:    7245343  HIT:    7233685  MISS:      11658  HIT %:    99.8391  MISS %:   0.160903   MPKI: 0.05829
L1D PREFETCH  ACCESS:     628107  HIT:     627009  MISS:       1098  HIT %:    99.8252  MISS %:   0.174811   MPKI: 0.00549
L1D PREFETCH  REQUESTED:    1387686  ISSUED:    1386886  USEFUL:       1063  USELESS:         42
L1D USEFUL LOAD PREFETCHES:       1063 PREFETCH ISSUED TO LOWER LEVEL:      55788  ACCURACY: 1.90543
L1D TIMELY PREFETCHES:       1063 LATE PREFETCHES: 0 DROPPED PREFETCHES: 10520
L1D PREFETCHES SAME FILL-ORIGIN LEVEL: 1102 DIFFERENT FILL-ORIGIN LEVEL: 54686
L1D AVERAGE MISS LATENCY: 154.187 cycles
L1D RQ	ACCESS:   49633641	FORWARD:          0	MERGED:   18569329	TO_CACHE:   30991900
L1D WQ	ACCESS:    7419326	FORWARD:      72504	MERGED:     109796	TO_CACHE:    7309530
L1D PQ	ACCESS:     693566	FORWARD:          0	MERGED:        154	TO_CACHE:     693320

L1D UNIQUE REGIONS ACCESSED: 0
L1D REGIONS CONFLICTS: 0
L1D Cross Page Prefetch Requests: 101756
L1D Same Page Prefetch Requests: 902879
L1D ROI Sum of L1D PQ occupancy: 9691740
L1D PREFETCHES PUSHED FROM L2C: 0
L1I TOTAL     ACCESS:   43654100  HIT:   43654100  MISS:          0  HIT %:        100  MISS %:          0   MPKI: 0
L1I LOAD      ACCESS:   43654100  HIT:   43654100  MISS:          0  HIT %:        100  MISS %:          0   MPKI: 0
L1I PREFETCH  REQUESTED:          0  ISSUED:          0  USEFUL:          0  USELESS:          0
L1I USEFUL LOAD PREFETCHES:          0 PREFETCH ISSUED TO LOWER LEVEL:          0  ACCURACY: -nan
L1I TIMELY PREFETCHES:          0 LATE PREFETCHES: 0 DROPPED PREFETCHES: 0
L1I PREFETCHES SAME FILL-ORIGIN LEVEL: 0 DIFFERENT FILL-ORIGIN LEVEL: 0
L1I AVERAGE MISS LATENCY: -nan cycles
L1I RQ	ACCESS:   74487445	FORWARD:          0	MERGED:   30833345	TO_CACHE:   43654100

BTB TOTAL     ACCESS:   27912721  HIT:   27764857  MISS:     147864  HIT %:    99.4703  MISS %:   0.529737   MPKI: 0.73932
BTB BRANCH_DIRECT_JUMP	ACCESS:    2180748  HIT:    2180701  MISS:         47
BTB BRANCH_INDIRECT	ACCESS:      75362  HIT:      75359  MISS:          3
BTB BRANCH_CONDITIONAL	ACCESS:   25101520  HIT:   25101370  MISS:        150
BTB BRANCH_DIRECT_CALL	ACCESS:     277545  HIT:     277486  MISS:         59
BTB BRANCH_INDIRECT_CALL	ACCESS:          0  HIT:          0  MISS:          0
BTB BRANCH_RETURN	ACCESS:     277546  HIT:     129941  MISS:     147605
BTB BRANCH_OTHER ACCESS:          0  HIT:          0  MISS:          0

L2C TOTAL     ACCESS:      82307  HIT:      69373  MISS:      12934  HIT %:    84.2857  MISS %:    15.7143   MPKI: 0.06467
L2C LOAD      ACCESS:        333  HIT:        253  MISS:         80  HIT %:     75.976  MISS %:     24.024   MPKI: 0.0004
L2C DATA LOAD MPKI: 0.0004
L2C INSTRUCTION LOAD MPKI: 0
L2C RFO       ACCESS:      11654  HIT:       1488  MISS:      10166  HIT %:    12.7681  MISS %:    87.2319   MPKI: 0.05083
L2C PREFETCH  ACCESS:      55366  HIT:      52762  MISS:       2604  HIT %:    95.2968  MISS %:    4.70325   MPKI: 0.01302
L2C DATA PREFETCH MPKI: 0.01302
L2C INSTRUCTION PREFETCH MPKI: 0
L2C WRITEBACK ACCESS:      11683  HIT:      11625  MISS:         58  HIT %:    99.5036  MISS %:   0.496448   MPKI: 0.00029
L2C LOAD TRANSLATION ACCESS:        200  HIT:        188  MISS:         12  HIT %:         94  MISS %:          6   MPKI: 6e-05
L2C TRANSLATION FROM L1D PREFETCHER ACCESS:       3071  HIT:       3057  MISS:         14  HIT %:    99.5441  MISS %:   0.455878   MPKI: 7e-05
L2C PREFETCH  REQUESTED:          0  ISSUED:          0  USEFUL:       1543  USELESS:        915
L2C USEFUL LOAD PREFETCHES:       1543 PREFETCH ISSUED TO LOWER LEVEL:       3014  ACCURACY: 51.1944
L2C TIMELY PREFETCHES:       1543 LATE PREFETCHES: 410 DROPPED PREFETCHES: 0
L2C PREFETCHES SAME FILL-ORIGIN LEVEL: 2868 DIFFERENT FILL-ORIGIN LEVEL: 0
L2C AVERAGE MISS LATENCY: 176.622 cycles
L2C RQ	ACCESS:      15258	FORWARD:          0	MERGED:          0	TO_CACHE:      15258
L2C WQ	ACCESS:      11683	FORWARD:          0	MERGED:          0	TO_CACHE:      11683
L2C PQ	ACCESS:      55788	FORWARD:          0	MERGED:          0	TO_CACHE:      55788

L2C Instructions Evicting Data 0
L2C Translations Evicting Data 26
L2C Data Evicting Data 12822
L2C Instructions Evicting Instructions 0
L2C Translations Evicting Instructions 0
L2C Data Evicting Instructions 2
L2C Instructions Evicting Translations 0
L2C Translations Evicting Translations 0
L2C Data Evicting Translations 26
L2C Dense regions hint from L2: 0
PSCL5 TOTAL     ACCESS:       3271  HIT:       3271  MISS:          0  HIT %:        100  MISS %:          0   MPKI: 0
PSCL5 LOAD TRANSLATION ACCESS:        200  HIT:        200  MISS:          0  HIT %:        100  MISS %:          0   MPKI: 0
PSCL5 TRANSLATION FROM L1D PREFETCHER ACCESS:       3071  HIT:       3071  MISS:          0  HIT %:        100  MISS %:          0   MPKI: 0
PSCL5 PREFETCH  REQUESTED:          0  ISSUED:          0  USEFUL:          0  USELESS:          0
PSCL5 USEFUL LOAD PREFETCHES:          0 PREFETCH ISSUED TO LOWER LEVEL:          0  ACCURACY: -nan
PSCL5 TIMELY PREFETCHES:          0 LATE PREFETCHES: 0 DROPPED PREFETCHES: 0
PSCL5 PREFETCHES SAME FILL-ORIGIN LEVEL: 0 DIFFERENT FILL-ORIGIN LEVEL: 0

PSCL4 TOTAL     ACCESS:       3271  HIT:       3271  MISS:          0  HIT %:        100  MISS %:          0   MPKI: 0
PSCL4 LOAD TRANSLATION ACCESS:        200  HIT:        200  MISS:          0  HIT %:        100  MISS %:          0   MPKI: 0
PSCL4 TRANSLATION FROM L1D PREFETCHER ACCESS:       3071  HIT:       3071  MISS:          0  HIT %:        100  MISS %:          0   MPKI: 0
PSCL4 PREFETCH  REQUESTED:          0  ISSUED:          0  USEFUL:          0  USELESS:          0
PSCL4 USEFUL LOAD PREFETCHES:          0 PREFETCH ISSUED TO LOWER LEVEL:          0  ACCURACY: -nan
PSCL4 TIMELY PREFETCHES:          0 LATE PREFETCHES: 0 DROPPED PREFETCHES: 0
PSCL4 PREFETCHES SAME FILL-ORIGIN LEVEL: 0 DIFFERENT FILL-ORIGIN LEVEL: 0

PSCL3 TOTAL     ACCESS:       3271  HIT:       3271  MISS:          0  HIT %:        100  MISS %:          0   MPKI: 0
PSCL3 LOAD TRANSLATION ACCESS:        200  HIT:        200  MISS:          0  HIT %:        100  MISS %:          0   MPKI: 0
PSCL3 TRANSLATION FROM L1D PREFETCHER ACCESS:       3071  HIT:       3071  MISS:          0  HIT %:        100  MISS %:          0   MPKI: 0
PSCL3 PREFETCH  REQUESTED:          0  ISSUED:          0  USEFUL:          0  USELESS:          0
PSCL3 USEFUL LOAD PREFETCHES:          0 PREFETCH ISSUED TO LOWER LEVEL:          0  ACCURACY: -nan
PSCL3 TIMELY PREFETCHES:          0 LATE PREFETCHES: 0 DROPPED PREFETCHES: 0
PSCL3 PREFETCHES SAME FILL-ORIGIN LEVEL: 0 DIFFERENT FILL-ORIGIN LEVEL: 0

PSCL2 TOTAL     ACCESS:       3271  HIT:       3271  MISS:          0  HIT %:        100  MISS %:          0   MPKI: 0
PSCL2 LOAD TRANSLATION ACCESS:        200  HIT:        200  MISS:          0  HIT %:        100  MISS %:          0   MPKI: 0
PSCL2 TRANSLATION FROM L1D PREFETCHER ACCESS:       3071  HIT:       3071  MISS:          0  HIT %:        100  MISS %:          0   MPKI: 0
PSCL2 PREFETCH  REQUESTED:          0  ISSUED:          0  USEFUL:          0  USELESS:          0
PSCL2 USEFUL LOAD PREFETCHES:          0 PREFETCH ISSUED TO LOWER LEVEL:          0  ACCURACY: -nan
PSCL2 TIMELY PREFETCHES:          0 LATE PREFETCHES: 0 DROPPED PREFETCHES: 0
PSCL2 PREFETCHES SAME FILL-ORIGIN LEVEL: 0 DIFFERENT FILL-ORIGIN LEVEL: 0

LLC TOTAL     ACCESS:      24706  HIT:      11666  MISS:      13040  HIT %:    47.2193  MISS %:    52.7807   MPKI: 0.0652
LLC LOAD      ACCESS:         80  HIT:          4  MISS:         76  HIT %:          5  MISS %:         95   MPKI: 0.00038
LLC RFO       ACCESS:       9756  HIT:          0  MISS:       9756  HIT %:          0  MISS %:        100   MPKI: 0.04878
LLC PREFETCH  ACCESS:       3014  HIT:         12  MISS:       3002  HIT %:   0.398142  MISS %:    99.6019   MPKI: 0.01501
LLC WRITEBACK ACCESS:      11830  HIT:      11649  MISS:        181  HIT %:      98.47  MISS %:    1.53001   MPKI: 0.000905
LLC LOAD TRANSLATION ACCESS:         12  HIT:          1  MISS:         11  HIT %:    8.33333  MISS %:    91.6667   MPKI: 5.5e-05
LLC TRANSLATION FROM L1D PREFETCHER ACCESS:         14  HIT:          0  MISS:         14  HIT %:          0  MISS %:        100   MPKI: 7e-05
LLC PREFETCH  REQUESTED:          0  ISSUED:          0  USEFUL:          0  USELESS:        844
LLC USEFUL LOAD PREFETCHES:          0 PREFETCH ISSUED TO LOWER LEVEL:       3002  ACCURACY: 0
LLC TIMELY PREFETCHES:          0 LATE PREFETCHES: 0 DROPPED PREFETCHES: 0
LLC PREFETCHES SAME FILL-ORIGIN LEVEL: 0 DIFFERENT FILL-ORIGIN LEVEL: 0
LLC AVERAGE MISS LATENCY: 145.389 cycles
LLC RQ	ACCESS:       9862	FORWARD:          0	MERGED:          0	TO_CACHE:       9862
LLC WQ	ACCESS:      11830	FORWARD:          0	MERGED:          0	TO_CACHE:      11830
LLC PQ	ACCESS:       3014	FORWARD:          0	MERGED:          0	TO_CACHE:       3014

LLC Dense regions hint to LLC: 0

RAW hits: 405262
Loads Generated: 50038903
Loads sent to L1D: 49633641
Stores Generated: 7419323
Stores sent to L1D: 7419326
Major fault: 0 Minor fault: 723
Allocated PAGES: 723

DRAM Statistics
 CHANNEL 0
 RQ ROW_BUFFER_HIT:       4185  ROW_BUFFER_MISS:       8674
 DBUS_CONGESTED:          1
 WQ ROW_BUFFER_HIT:        843  ROW_BUFFER_MISS:       8522  FULL:          0

 AVG_CONGESTED_CYCLE: 6
 All warmup complete: 2
Channel 0 Bank busy for read cycles: 0
Channel 0 Bank busy for write cycles: 0
Channel 0
Rank 0
0banks busy for read cycles: 237389264
0banks busy for write cycles: 2725
1banks busy for read cycles: 311601
1banks busy for write cycles: 101324
2banks busy for read cycles: 275830
2banks busy for write cycles: 124749
3banks busy for read cycles: 162037
3banks busy for write cycles: 207982
4banks busy for read cycles: 18815
4banks busy for write cycles: 55192
5banks busy for read cycles: 4476
5banks busy for write cycles: 10252
6banks busy for read cycles: 2281
6banks busy for write cycles: 3224
7banks busy for read cycles: 2608
7banks busy for write cycles: 2035
8banks busy for read cycles: 3928
8banks busy for write cycles: 7748

CPU 0 Branch Prediction Accuracy: 99.9817% MPKI: 0.02403 Average ROB Occupancy at Mispredict: 60.0651
Branch types
NOT_BRANCH: 170868137 85.4341%
BRANCH_DIRECT_JUMP: 2180748 1.09037%
BRANCH_INDIRECT: 75362 0.037681%
BRANCH_CONDITIONAL: 26320336 13.1602%
BRANCH_DIRECT_CALL: 277545 0.138772%
BRANCH_INDIRECT_CALL: 0 0%
BRANCH_RETURN: 277546 0.138773%
BRANCH_OTHER: 0 0%

DRAM PAGES: 1048576
Allocated PAGES: 723
