 (TOTAL 523355 bits 511 Kbits) 
*** ChampSim Multicore Out-of-Order Simulator ***

Warmup Instructions: 50000000
Simulation Instructions: 200000000
Number of CPUs: 1
LLC sets: 2048
LLC ways: 16
Off-chip DRAM Size: 4096 MB Channels: 1 Width: 64-bit Data Rate: 6400 MT/s
argv[0]: ./ChampSim/Berti/bin/tagescl-no-vberti-no-no-no-no-no-lru-lru-lru-srrip-drrip-lru-lru-lru-1core-no
argv[1]: -warmup_instructions
argv[2]: 50000000
argv[3]: -simulation_instructions
argv[4]: 200000000
argv[5]: -traces
argv[6]: traces/spec2k17_ten/603.bwaves_s-891B.champsimtrace.xz
CPU 0 runs traces/spec2k17_ten/603.bwaves_s-891B.champsimtrace.xz
.xz
CPU 0 Tage branch predictor
BTB has LRU replacement policy
ITLB has LRU replacement policy
DTLB has LRU replacement policy
STLB has LRU replacement policy
L1I has LRU replacement policy
History Sets: 8
History Ways: 16
BERTI Size: 16
BERTI Stride Size: 16
L1D has LRU replacement policy
Initialize SRRIP state for L2C
Initialize DRRIP state for LLC
Heartbeat CPU 0 instructions: 10000003 cycles: 2715419 heartbeat IPC: 3.68267 cumulative IPC: 3.68267 (Simulation time: 0 hr 8 min 3 sec) 
Heartbeat CPU 0 instructions: 20000003 cycles: 5430815 heartbeat IPC: 3.6827 cumulative IPC: 3.68269 (Simulation time: 0 hr 11 min 17 sec) 
Heartbeat CPU 0 instructions: 30000002 cycles: 8146208 heartbeat IPC: 3.68271 cumulative IPC: 3.6827 (Simulation time: 0 hr 18 min 42 sec) 
Heartbeat CPU 0 instructions: 40000000 cycles: 10861603 heartbeat IPC: 3.6827 cumulative IPC: 3.6827 (Simulation time: 0 hr 27 min 25 sec) 
Heartbeat CPU 0 instructions: 50000002 cycles: 13778245 heartbeat IPC: 3.4286 cumulative IPC: 3.62891 (Simulation time: 0 hr 33 min 50 sec) 

Warmup complete CPU 0 instructions: 50000002 cycles: 13778245 (Simulation time: 0 hr 33 min 50 sec) 

Heartbeat CPU 0 instructions: 60000001 cycles: 27501440 heartbeat IPC: 0.728693 cumulative IPC: 0.728693 (Simulation time: 0 hr 41 min 11 sec) 
Heartbeat CPU 0 instructions: 70000001 cycles: 41224554 heartbeat IPC: 0.728698 cumulative IPC: 0.728695 (Simulation time: 0 hr 48 min 41 sec) 
Heartbeat CPU 0 instructions: 80000002 cycles: 54947706 heartbeat IPC: 0.728696 cumulative IPC: 0.728695 (Simulation time: 0 hr 55 min 38 sec) 
Heartbeat CPU 0 instructions: 90000001 cycles: 68671020 heartbeat IPC: 0.728687 cumulative IPC: 0.728693 (Simulation time: 1 hr 3 min 24 sec) 
Heartbeat CPU 0 instructions: 100000000 cycles: 82394089 heartbeat IPC: 0.7287 cumulative IPC: 0.728695 (Simulation time: 1 hr 10 min 56 sec) 
Heartbeat CPU 0 instructions: 110000000 cycles: 96117220 heartbeat IPC: 0.728697 cumulative IPC: 0.728695 (Simulation time: 1 hr 18 min 51 sec) 
Heartbeat CPU 0 instructions: 120000001 cycles: 109840365 heartbeat IPC: 0.728696 cumulative IPC: 0.728695 (Simulation time: 1 hr 26 min 19 sec) 
Heartbeat CPU 0 instructions: 130000000 cycles: 123563512 heartbeat IPC: 0.728696 cumulative IPC: 0.728695 (Simulation time: 1 hr 33 min 57 sec) 
Heartbeat CPU 0 instructions: 140000001 cycles: 137286700 heartbeat IPC: 0.728694 cumulative IPC: 0.728695 (Simulation time: 1 hr 41 min 19 sec) 
Heartbeat CPU 0 instructions: 150000000 cycles: 151009835 heartbeat IPC: 0.728696 cumulative IPC: 0.728695 (Simulation time: 1 hr 48 min 54 sec) 
Heartbeat CPU 0 instructions: 160000000 cycles: 164733095 heartbeat IPC: 0.72869 cumulative IPC: 0.728695 (Simulation time: 1 hr 56 min 56 sec) 
Heartbeat CPU 0 instructions: 170000000 cycles: 178378597 heartbeat IPC: 0.732842 cumulative IPC: 0.729039 (Simulation time: 2 hr 5 min 24 sec) 
Heartbeat CPU 0 instructions: 180000001 cycles: 191867439 heartbeat IPC: 0.741354 cumulative IPC: 0.729971 (Simulation time: 2 hr 13 min 56 sec) 
Heartbeat CPU 0 instructions: 190000002 cycles: 205235242 heartbeat IPC: 0.748066 cumulative IPC: 0.731235 (Simulation time: 2 hr 21 min 45 sec) 
Heartbeat CPU 0 instructions: 200000000 cycles: 218452535 heartbeat IPC: 0.756584 cumulative IPC: 0.732872 (Simulation time: 2 hr 31 min 5 sec) 
Heartbeat CPU 0 instructions: 210000002 cycles: 231669692 heartbeat IPC: 0.756593 cumulative IPC: 0.734311 (Simulation time: 2 hr 40 min 4 sec) 
Heartbeat CPU 0 instructions: 220000000 cycles: 244886776 heartbeat IPC: 0.756596 cumulative IPC: 0.735585 (Simulation time: 2 hr 48 min 56 sec) 
Heartbeat CPU 0 instructions: 230000000 cycles: 258103873 heartbeat IPC: 0.756596 cumulative IPC: 0.736722 (Simulation time: 2 hr 58 min 1 sec) 
Heartbeat CPU 0 instructions: 240000000 cycles: 271320934 heartbeat IPC: 0.756598 cumulative IPC: 0.737742 (Simulation time: 3 hr 7 min 22 sec) 
Heartbeat CPU 0 instructions: 250000000 cycles: 284538181 heartbeat IPC: 0.756587 cumulative IPC: 0.738662 (Simulation time: 3 hr 16 min 5 sec) 
Finished CPU 0 instructions: 200000002 cycles: 270759937 cumulative IPC: 0.738662 (Simulation time: 3 hr 16 min 5 sec) 

ChampSim completed all CPUs

Region of Interest Statistics

CPU 0 cumulative IPC: 0.738662 instructions: 200000002 cycles: 270759937
ITLB TOTAL     ACCESS:   33477553  HIT:   33477552  MISS:          1  HIT %:        100  MISS %: 2.98708e-06   MPKI: 5e-06
ITLB LOAD TRANSLATION ACCESS:   33477553  HIT:   33477552  MISS:          1  HIT %:        100  MISS %: 2.98708e-06   MPKI: 5e-06
ITLB PREFETCH  REQUESTED:          0  ISSUED:          0  USEFUL:          0  USELESS:          0
ITLB USEFUL LOAD PREFETCHES:          0 PREFETCH ISSUED TO LOWER LEVEL:          0  ACCURACY: -nan
ITLB TIMELY PREFETCHES:          0 LATE PREFETCHES: 0 DROPPED PREFETCHES: 0
ITLB PREFETCHES SAME FILL-ORIGIN LEVEL: 0 DIFFERENT FILL-ORIGIN LEVEL: 0
ITLB AVERAGE MISS LATENCY: 431 cycles
ITLB RQ	ACCESS:   36284070	FORWARD:          0	MERGED:    2806516	TO_CACHE:   33477554

DTLB TOTAL     ACCESS:   24300980  HIT:   24240326  MISS:      60654  HIT %:    99.7504  MISS %:   0.249595   MPKI: 0.30327
DTLB LOAD TRANSLATION ACCESS:   24300980  HIT:   24240326  MISS:      60654  HIT %:    99.7504  MISS %:   0.249595   MPKI: 0.30327
DTLB PREFETCH  REQUESTED:          0  ISSUED:          0  USEFUL:          0  USELESS:          0
DTLB USEFUL LOAD PREFETCHES:          0 PREFETCH ISSUED TO LOWER LEVEL:          0  ACCURACY: -nan
DTLB TIMELY PREFETCHES:          0 LATE PREFETCHES: 0 DROPPED PREFETCHES: 0
DTLB PREFETCHES SAME FILL-ORIGIN LEVEL: 0 DIFFERENT FILL-ORIGIN LEVEL: 0
DTLB AVERAGE MISS LATENCY: 85.9963 cycles
DTLB RQ	ACCESS:   24805456	FORWARD:          0	MERGED:     499551	TO_CACHE:   24305905

STLB TOTAL     ACCESS:   15064114  HIT:   15003796  MISS:      60318  HIT %:    99.5996  MISS %:   0.400409   MPKI: 0.30159
STLB LOAD TRANSLATION ACCESS:      60655  HIT:      18563  MISS:      42092  HIT %:    30.6042  MISS %:    69.3958   MPKI: 0.21046
STLB TRANSLATION FROM L1D PREFETCHER ACCESS:   15003459  HIT:   14985233  MISS:      18226  HIT %:    99.8785  MISS %:   0.121479   MPKI: 0.09113
STLB PREFETCH  REQUESTED:          0  ISSUED:          0  USEFUL:      18226  USELESS:          0
STLB USEFUL LOAD PREFETCHES:      18226 PREFETCH ISSUED TO LOWER LEVEL:          0  ACCURACY: inf
STLB TIMELY PREFETCHES:      18226 LATE PREFETCHES: 12016 DROPPED PREFETCHES: 1224415
STLB PREFETCHES SAME FILL-ORIGIN LEVEL: 0 DIFFERENT FILL-ORIGIN LEVEL: 0
STLB AVERAGE MISS LATENCY: 97.2161 cycles
STLB RQ	ACCESS:  104543520	FORWARD:          0	MERGED:   88071997	TO_CACHE:   16471523

STLB Hit, L1D data hit: 0
STLB Hit, L2C data hit: 0
STLB Hit, LLC data hit: 0
STLB Hit, LLC data miss: 0
STLB STLB hints to L2: 0
L1D TOTAL     ACCESS:  111622176  HIT:  107761067  MISS:    3861109  HIT %:    96.5409  MISS %:    3.45909   MPKI: 19.3055
L1D LOAD      ACCESS:   21293832  HIT:   21211271  MISS:      82561  HIT %:    99.6123  MISS %:   0.387723   MPKI: 0.412805
L1D RFO       ACCESS:    3343060  HIT:    3343058  MISS:          2  HIT %:    99.9999  MISS %: 5.98254e-05   MPKI: 1e-05
L1D PREFETCH  ACCESS:   86985284  HIT:   83206738  MISS:    3778546  HIT %:    95.6561  MISS %:    4.34389   MPKI: 18.8927
L1D PREFETCH  REQUESTED:  242445178  ISSUED:  229305207  USEFUL:    3778520  USELESS:         16
L1D USEFUL LOAD PREFETCHES:    3778520 PREFETCH ISSUED TO LOWER LEVEL:    8028812  ACCURACY: 47.062
L1D TIMELY PREFETCHES:    3778520 LATE PREFETCHES: 41684 DROPPED PREFETCHES: 3696590
L1D PREFETCHES SAME FILL-ORIGIN LEVEL: 3820236 DIFFERENT FILL-ORIGIN LEVEL: 4208576
L1D AVERAGE MISS LATENCY: 137.993 cycles
L1D RQ	ACCESS:   35804809	FORWARD:          0	MERGED:   14342412	TO_CACHE:   21462397
L1D WQ	ACCESS:    3375822	FORWARD:          0	MERGED:      32763	TO_CACHE:    3343059
L1D PQ	ACCESS:  124822342	FORWARD:          0	MERGED:   20339477	TO_CACHE:  104482865

L1D UNIQUE REGIONS ACCESSED: 0
L1D REGIONS CONFLICTS: 0
L1D Cross Page Prefetch Requests: 13931587
L1D Same Page Prefetch Requests: 140748364
L1D ROI Sum of L1D PQ occupancy: 1679096679
L1D PREFETCHES PUSHED FROM L2C: 0
L1I TOTAL     ACCESS:   36284068  HIT:   36284061  MISS:          7  HIT %:        100  MISS %: 1.92922e-05   MPKI: 3.5e-05
L1I LOAD      ACCESS:   36284068  HIT:   36284061  MISS:          7  HIT %:        100  MISS %: 1.92922e-05   MPKI: 3.5e-05
L1I PREFETCH  REQUESTED:          0  ISSUED:          0  USEFUL:          0  USELESS:          0
L1I USEFUL LOAD PREFETCHES:          0 PREFETCH ISSUED TO LOWER LEVEL:          0  ACCURACY: -nan
L1I TIMELY PREFETCHES:          0 LATE PREFETCHES: 0 DROPPED PREFETCHES: 0
L1I PREFETCHES SAME FILL-ORIGIN LEVEL: 0 DIFFERENT FILL-ORIGIN LEVEL: 0
L1I AVERAGE MISS LATENCY: 214.143 cycles
L1I RQ	ACCESS:   45313162	FORWARD:          0	MERGED:    9029092	TO_CACHE:   36284070

BTB TOTAL     ACCESS:   30088189  HIT:   30088178  MISS:         11  HIT %:        100  MISS %: 3.65592e-05   MPKI: 5.5e-05
BTB BRANCH_DIRECT_JUMP	ACCESS:    1387292  HIT:    1387290  MISS:          2
BTB BRANCH_INDIRECT	ACCESS:          0  HIT:          0  MISS:          0
BTB BRANCH_CONDITIONAL	ACCESS:   28700897  HIT:   28700888  MISS:          9
BTB BRANCH_DIRECT_CALL	ACCESS:          0  HIT:          0  MISS:          0
BTB BRANCH_INDIRECT_CALL	ACCESS:          0  HIT:          0  MISS:          0
BTB BRANCH_RETURN	ACCESS:          0  HIT:          0  MISS:          0
BTB BRANCH_OTHER ACCESS:          0  HIT:          0  MISS:          0

L2C TOTAL     ACCESS:    7515867  HIT:    3647513  MISS:    3868354  HIT %:    48.5308  MISS %:    51.4692   MPKI: 19.3418
L2C LOAD      ACCESS:      40884  HIT:       3464  MISS:      37420  HIT %:    8.47275  MISS %:    91.5272   MPKI: 0.1871
L2C DATA LOAD MPKI: 0.187065
L2C INSTRUCTION LOAD MPKI: 3.5e-05
L2C RFO       ACCESS:          2  HIT:          0  MISS:          2  HIT %:          0  MISS %:        100   MPKI: 1e-05
L2C PREFETCH  ACCESS:    6178167  HIT:    2354901  MISS:    3823266  HIT %:    38.1165  MISS %:    61.8835   MPKI: 19.1163
L2C DATA PREFETCH MPKI: 19.1163
L2C INSTRUCTION PREFETCH MPKI: 0
L2C WRITEBACK ACCESS:          4  HIT:          1  MISS:          3  HIT %:         25  MISS %:         75   MPKI: 1.5e-05
L2C LOAD TRANSLATION ACCESS:      42096  HIT:      42090  MISS:          6  HIT %:    99.9857  MISS %:  0.0142531   MPKI: 3e-05
L2C TRANSLATION FROM L1D PREFETCHER ACCESS:    1254714  HIT:    1247057  MISS:       7657  HIT %:    99.3897  MISS %:   0.610259   MPKI: 0.038285
L2C PREFETCH  REQUESTED:          0  ISSUED:          0  USEFUL:      10658  USELESS:    3820288
L2C USEFUL LOAD PREFETCHES:      10658 PREFETCH ISSUED TO LOWER LEVEL:    3827624  ACCURACY: 0.27845
L2C TIMELY PREFETCHES:      10658 LATE PREFETCHES: 4352 DROPPED PREFETCHES: 0
L2C PREFETCHES SAME FILL-ORIGIN LEVEL: 794160 DIFFERENT FILL-ORIGIN LEVEL: 0
L2C AVERAGE MISS LATENCY: 150.007 cycles
L2C RQ	ACCESS:    1337696	FORWARD:          0	MERGED:          0	TO_CACHE:    1337696
L2C WQ	ACCESS:          4	FORWARD:          0	MERGED:          0	TO_CACHE:          4
L2C PQ	ACCESS:    8028812	FORWARD:          0	MERGED:          0	TO_CACHE:    8028812

L2C Instructions Evicting Data 7
L2C Translations Evicting Data 7648
L2C Data Evicting Data 3853024
L2C Instructions Evicting Instructions 0
L2C Translations Evicting Instructions 0
L2C Data Evicting Instructions 7
L2C Instructions Evicting Translations 0
L2C Translations Evicting Translations 15
L2C Data Evicting Translations 7650
L2C Dense regions hint from L2: 0
PSCL5 TOTAL     ACCESS:    1296749  HIT:    1296749  MISS:          0  HIT %:        100  MISS %:          0   MPKI: 0
PSCL5 LOAD TRANSLATION ACCESS:      42092  HIT:      42092  MISS:          0  HIT %:        100  MISS %:          0   MPKI: 0
PSCL5 TRANSLATION FROM L1D PREFETCHER ACCESS:    1254657  HIT:    1254657  MISS:          0  HIT %:        100  MISS %:          0   MPKI: 0
PSCL5 PREFETCH  REQUESTED:          0  ISSUED:          0  USEFUL:          0  USELESS:          0
PSCL5 USEFUL LOAD PREFETCHES:          0 PREFETCH ISSUED TO LOWER LEVEL:          0  ACCURACY: -nan
PSCL5 TIMELY PREFETCHES:          0 LATE PREFETCHES: 0 DROPPED PREFETCHES: 0
PSCL5 PREFETCHES SAME FILL-ORIGIN LEVEL: 0 DIFFERENT FILL-ORIGIN LEVEL: 0

PSCL4 TOTAL     ACCESS:    1296749  HIT:    1296749  MISS:          0  HIT %:        100  MISS %:          0   MPKI: 0
PSCL4 LOAD TRANSLATION ACCESS:      42092  HIT:      42092  MISS:          0  HIT %:        100  MISS %:          0   MPKI: 0
PSCL4 TRANSLATION FROM L1D PREFETCHER ACCESS:    1254657  HIT:    1254657  MISS:          0  HIT %:        100  MISS %:          0   MPKI: 0
PSCL4 PREFETCH  REQUESTED:          0  ISSUED:          0  USEFUL:          0  USELESS:          0
PSCL4 USEFUL LOAD PREFETCHES:          0 PREFETCH ISSUED TO LOWER LEVEL:          0  ACCURACY: -nan
PSCL4 TIMELY PREFETCHES:          0 LATE PREFETCHES: 0 DROPPED PREFETCHES: 0
PSCL4 PREFETCHES SAME FILL-ORIGIN LEVEL: 0 DIFFERENT FILL-ORIGIN LEVEL: 0

PSCL3 TOTAL     ACCESS:    1296749  HIT:    1296749  MISS:          0  HIT %:        100  MISS %:          0   MPKI: 0
PSCL3 LOAD TRANSLATION ACCESS:      42092  HIT:      42092  MISS:          0  HIT %:        100  MISS %:          0   MPKI: 0
PSCL3 TRANSLATION FROM L1D PREFETCHER ACCESS:    1254657  HIT:    1254657  MISS:          0  HIT %:        100  MISS %:          0   MPKI: 0
PSCL3 PREFETCH  REQUESTED:          0  ISSUED:          0  USEFUL:          0  USELESS:          0
PSCL3 USEFUL LOAD PREFETCHES:          0 PREFETCH ISSUED TO LOWER LEVEL:          0  ACCURACY: -nan
PSCL3 TIMELY PREFETCHES:          0 LATE PREFETCHES: 0 DROPPED PREFETCHES: 0
PSCL3 PREFETCHES SAME FILL-ORIGIN LEVEL: 0 DIFFERENT FILL-ORIGIN LEVEL: 0

PSCL2 TOTAL     ACCESS:    1294532  HIT:    1294412  MISS:        120  HIT %:    99.9907  MISS %: 0.00926976   MPKI: 0.0006
PSCL2 LOAD TRANSLATION ACCESS:      42127  HIT:      42007  MISS:        120  HIT %:    99.7151  MISS %:   0.284853   MPKI: 0.0006
PSCL2 TRANSLATION FROM L1D PREFETCHER ACCESS:    1252405  HIT:    1252405  MISS:          0  HIT %:        100  MISS %:          0   MPKI: 0
PSCL2 PREFETCH  REQUESTED:          0  ISSUED:          0  USEFUL:          0  USELESS:          0
PSCL2 USEFUL LOAD PREFETCHES:          0 PREFETCH ISSUED TO LOWER LEVEL:          0  ACCURACY: -nan
PSCL2 TIMELY PREFETCHES:          0 LATE PREFETCHES: 0 DROPPED PREFETCHES: 0
PSCL2 PREFETCHES SAME FILL-ORIGIN LEVEL: 0 DIFFERENT FILL-ORIGIN LEVEL: 0

LLC TOTAL     ACCESS:    3868355  HIT:        486  MISS:    3867869  HIT %:  0.0125635  MISS %:    99.9874   MPKI: 19.3393
LLC LOAD      ACCESS:      33068  HIT:        440  MISS:      32628  HIT %:    1.33059  MISS %:    98.6694   MPKI: 0.16314
LLC RFO       ACCESS:          2  HIT:          0  MISS:          2  HIT %:          0  MISS %:        100   MPKI: 1e-05
LLC PREFETCH  ACCESS:    3827618  HIT:          6  MISS:    3827612  HIT %: 0.000156755  MISS %:    99.9998   MPKI: 19.1381
LLC WRITEBACK ACCESS:          4  HIT:          1  MISS:          3  HIT %:         25  MISS %:         75   MPKI: 1.5e-05
LLC LOAD TRANSLATION ACCESS:          6  HIT:          0  MISS:          6  HIT %:          0  MISS %:        100   MPKI: 3e-05
LLC TRANSLATION FROM L1D PREFETCHER ACCESS:       7657  HIT:         39  MISS:       7618  HIT %:   0.509338  MISS %:    99.4907   MPKI: 0.03809
LLC PREFETCH  REQUESTED:          0  ISSUED:          0  USEFUL:          7  USELESS:    3834765
LLC USEFUL LOAD PREFETCHES:          7 PREFETCH ISSUED TO LOWER LEVEL:    3827618  ACCURACY: 0.000182881
LLC TIMELY PREFETCHES:          7 LATE PREFETCHES: 0 DROPPED PREFETCHES: 0
LLC PREFETCHES SAME FILL-ORIGIN LEVEL: 0 DIFFERENT FILL-ORIGIN LEVEL: 0
LLC AVERAGE MISS LATENCY: 119.858 cycles
LLC RQ	ACCESS:      40733	FORWARD:          0	MERGED:          0	TO_CACHE:      40733
LLC WQ	ACCESS:          4	FORWARD:          0	MERGED:          0	TO_CACHE:          4
LLC PQ	ACCESS:    3827624	FORWARD:          0	MERGED:          0	TO_CACHE:    3827624

LLC Dense regions hint to LLC: 0

RAW hits: 1
Loads Generated: 35804810
Loads sent to L1D: 35804809
Stores Generated: 3375822
Stores sent to L1D: 3375822
Major fault: 0 Minor fault: 62153
Allocated PAGES: 62153

DRAM Statistics
 CHANNEL 0
 RQ ROW_BUFFER_HIT:    2724796  ROW_BUFFER_MISS:    1143072
 DBUS_CONGESTED:        725
 WQ ROW_BUFFER_HIT:          4  ROW_BUFFER_MISS:        411  FULL:          0

 AVG_CONGESTED_CYCLE: 3
 All warmup complete: 2
Channel 0 Bank busy for read cycles: 0
Channel 0 Bank busy for write cycles: 0
Channel 0
Rank 0
0banks busy for read cycles: 106344213
0banks busy for write cycles: 412
1banks busy for read cycles: 89468134
1banks busy for write cycles: 830595
2banks busy for read cycles: 33320628
2banks busy for write cycles: 9645
3banks busy for read cycles: 26793376
3banks busy for write cycles: 0
4banks busy for read cycles: 9128433
4banks busy for write cycles: 0
5banks busy for read cycles: 1134342
5banks busy for write cycles: 0
6banks busy for read cycles: 240013
6banks busy for write cycles: 0
7banks busy for read cycles: 307105
7banks busy for write cycles: 0
8banks busy for read cycles: 3183042
8banks busy for write cycles: 0

CPU 0 Branch Prediction Accuracy: 99.9999% MPKI: 0.00013 Average ROB Occupancy at Mispredict: 25.6154
Branch types
NOT_BRANCH: 166478363 83.2392%
BRANCH_DIRECT_JUMP: 1387292 0.693646%
BRANCH_INDIRECT: 0 0%
BRANCH_CONDITIONAL: 32134349 16.0672%
BRANCH_DIRECT_CALL: 0 0%
BRANCH_INDIRECT_CALL: 0 0%
BRANCH_RETURN: 0 0%
BRANCH_OTHER: 0 0%

DRAM PAGES: 1048576
Allocated PAGES: 62153
