
*** ChampSim Multicore Out-of-Order Simulator ***

Warmup Instructions: 50000000
Simulation Instructions: 200000000
Number of CPUs: 1
LLC sets: 2048
LLC ways: 16
Off-chip DRAM Size: 4096 MB Channels: 1 Width: 64-bit Data Rate: 6400 MT/s
argv[0]: ./ChampSim/Berti/bin/multiperspective_perceptron8kb-no-vberti-no-no-no-no-no-lru-lru-lru-srrip-drrip-lru-lru-lru-1core-no
argv[1]: -warmup_instructions
argv[2]: 50000000
argv[3]: -simulation_instructions
argv[4]: 200000000
argv[5]: -traces
argv[6]: traces/spec2k17_ten/623.xalancbmk_s-165B.champsimtrace.xz
CPU 0 runs traces/spec2k17_ten/623.xalancbmk_s-165B.champsimtrace.xz
.xz
CPU 0 Multiperspective perceptron branch predictor
BTB has LRU replacement policy
ITLB has LRU replacement policy
DTLB has LRU replacement policy
STLB has LRU replacement policy
L1I has LRU replacement policy
History Sets: 8
History Ways: 16
BERTI Size: 16
BERTI Stride Size: 16
L1D has LRU replacement policy
Initialize SRRIP state for L2C
Initialize DRRIP state for LLC
Heartbeat CPU 0 instructions: 10000000 cycles: 2854117 heartbeat IPC: 3.50371 cumulative IPC: 3.50371 (Simulation time: 0 hr 10 min 43 sec) 
Heartbeat CPU 0 instructions: 20000001 cycles: 5702113 heartbeat IPC: 3.51124 cumulative IPC: 3.50747 (Simulation time: 0 hr 19 min 29 sec) 
Heartbeat CPU 0 instructions: 30000002 cycles: 8541515 heartbeat IPC: 3.52187 cumulative IPC: 3.51226 (Simulation time: 0 hr 25 min 22 sec) 
Heartbeat CPU 0 instructions: 40000003 cycles: 11388780 heartbeat IPC: 3.51214 cumulative IPC: 3.51223 (Simulation time: 0 hr 31 min 47 sec) 
Heartbeat CPU 0 instructions: 50000001 cycles: 14231491 heartbeat IPC: 3.51777 cumulative IPC: 3.51334 (Simulation time: 0 hr 36 min 14 sec) 

Warmup complete CPU 0 instructions: 50000001 cycles: 14231491 (Simulation time: 0 hr 36 min 14 sec) 

Heartbeat CPU 0 instructions: 60000003 cycles: 25660252 heartbeat IPC: 0.874986 cumulative IPC: 0.874986 (Simulation time: 0 hr 41 min 28 sec) 
Heartbeat CPU 0 instructions: 70000001 cycles: 37089705 heartbeat IPC: 0.874932 cumulative IPC: 0.874959 (Simulation time: 0 hr 45 min 53 sec) 
Heartbeat CPU 0 instructions: 80000001 cycles: 48517345 heartbeat IPC: 0.875071 cumulative IPC: 0.874996 (Simulation time: 0 hr 54 min 15 sec) 
Heartbeat CPU 0 instructions: 90000001 cycles: 59947486 heartbeat IPC: 0.87488 cumulative IPC: 0.874967 (Simulation time: 1 hr 4 min 22 sec) 
Heartbeat CPU 0 instructions: 100000001 cycles: 71373326 heartbeat IPC: 0.875209 cumulative IPC: 0.875016 (Simulation time: 1 hr 12 min 0 sec) 
Heartbeat CPU 0 instructions: 110000000 cycles: 82806769 heartbeat IPC: 0.874627 cumulative IPC: 0.874951 (Simulation time: 1 hr 19 min 52 sec) 
Heartbeat CPU 0 instructions: 120000000 cycles: 94231042 heartbeat IPC: 0.875329 cumulative IPC: 0.875005 (Simulation time: 1 hr 26 min 15 sec) 
Heartbeat CPU 0 instructions: 130000002 cycles: 105660090 heartbeat IPC: 0.874964 cumulative IPC: 0.875 (Simulation time: 1 hr 31 min 59 sec) 
Heartbeat CPU 0 instructions: 140000002 cycles: 117087851 heartbeat IPC: 0.875062 cumulative IPC: 0.875007 (Simulation time: 1 hr 37 min 19 sec) 
Heartbeat CPU 0 instructions: 150000002 cycles: 128516081 heartbeat IPC: 0.875026 cumulative IPC: 0.875009 (Simulation time: 1 hr 42 min 51 sec) 
Heartbeat CPU 0 instructions: 160000000 cycles: 139943728 heartbeat IPC: 0.875071 cumulative IPC: 0.875014 (Simulation time: 1 hr 47 min 50 sec) 
Heartbeat CPU 0 instructions: 170000000 cycles: 151373450 heartbeat IPC: 0.874912 cumulative IPC: 0.875006 (Simulation time: 1 hr 52 min 31 sec) 
Heartbeat CPU 0 instructions: 180000002 cycles: 162803156 heartbeat IPC: 0.874913 cumulative IPC: 0.874999 (Simulation time: 1 hr 58 min 13 sec) 
Heartbeat CPU 0 instructions: 190000002 cycles: 174231464 heartbeat IPC: 0.87502 cumulative IPC: 0.875 (Simulation time: 2 hr 4 min 42 sec) 
Heartbeat CPU 0 instructions: 200000002 cycles: 185659580 heartbeat IPC: 0.875035 cumulative IPC: 0.875002 (Simulation time: 2 hr 12 min 4 sec) 
Heartbeat CPU 0 instructions: 210000003 cycles: 197088861 heartbeat IPC: 0.874946 cumulative IPC: 0.874999 (Simulation time: 2 hr 16 min 46 sec) 
Heartbeat CPU 0 instructions: 220000000 cycles: 208886659 heartbeat IPC: 0.847616 cumulative IPC: 0.873339 (Simulation time: 2 hr 23 min 17 sec) 
Heartbeat CPU 0 instructions: 230000001 cycles: 220291110 heartbeat IPC: 0.876851 cumulative IPC: 0.873534 (Simulation time: 2 hr 31 min 4 sec) 
Heartbeat CPU 0 instructions: 240000002 cycles: 231429077 heartbeat IPC: 0.89783 cumulative IPC: 0.87478 (Simulation time: 2 hr 35 min 1 sec) 
Heartbeat CPU 0 instructions: 250000002 cycles: 242469505 heartbeat IPC: 0.905762 cumulative IPC: 0.876278 (Simulation time: 2 hr 39 min 44 sec) 
Finished CPU 0 instructions: 200000001 cycles: 228238014 cumulative IPC: 0.876278 (Simulation time: 2 hr 39 min 44 sec) 

ChampSim completed all CPUs

Region of Interest Statistics

CPU 0 cumulative IPC: 0.876278 instructions: 200000001 cycles: 228238014
ITLB TOTAL     ACCESS:   28389428  HIT:   28389417  MISS:         11  HIT %:        100  MISS %: 3.87468e-05   MPKI: 5.5e-05
ITLB LOAD TRANSLATION ACCESS:   28389428  HIT:   28389417  MISS:         11  HIT %:        100  MISS %: 3.87468e-05   MPKI: 5.5e-05
ITLB PREFETCH  REQUESTED:          0  ISSUED:          0  USEFUL:          0  USELESS:          0
ITLB USEFUL LOAD PREFETCHES:          0 PREFETCH ISSUED TO LOWER LEVEL:          0  ACCURACY: -nan
ITLB TIMELY PREFETCHES:          0 LATE PREFETCHES: 0 DROPPED PREFETCHES: 0
ITLB PREFETCHES SAME FILL-ORIGIN LEVEL: 0 DIFFERENT FILL-ORIGIN LEVEL: 0
ITLB AVERAGE MISS LATENCY: 247.273 cycles
ITLB RQ	ACCESS:   37102087	FORWARD:          0	MERGED:    8712659	TO_CACHE:   28389428

DTLB TOTAL     ACCESS:   31257933  HIT:   31192085  MISS:      65848  HIT %:    99.7893  MISS %:    0.21066   MPKI: 0.32924
DTLB LOAD TRANSLATION ACCESS:   31257933  HIT:   31192085  MISS:      65848  HIT %:    99.7893  MISS %:    0.21066   MPKI: 0.32924
DTLB PREFETCH  REQUESTED:          0  ISSUED:          0  USEFUL:          0  USELESS:          0
DTLB USEFUL LOAD PREFETCHES:          0 PREFETCH ISSUED TO LOWER LEVEL:          0  ACCURACY: -nan
DTLB TIMELY PREFETCHES:          0 LATE PREFETCHES: 0 DROPPED PREFETCHES: 0
DTLB PREFETCHES SAME FILL-ORIGIN LEVEL: 0 DIFFERENT FILL-ORIGIN LEVEL: 0
DTLB AVERAGE MISS LATENCY: 8.19235 cycles
DTLB RQ	ACCESS:   34062317	FORWARD:          0	MERGED:    2804110	TO_CACHE:   31258207

STLB TOTAL     ACCESS:    7905049  HIT:    7904302  MISS:        747  HIT %:    99.9906  MISS %: 0.00944966   MPKI: 0.003735
STLB LOAD TRANSLATION ACCESS:      65859  HIT:      65112  MISS:        747  HIT %:    98.8658  MISS %:    1.13424   MPKI: 0.003735
STLB TRANSLATION FROM L1D PREFETCHER ACCESS:    7839190  HIT:    7839190  MISS:          0  HIT %:        100  MISS %:          0   MPKI: 0
STLB PREFETCH  REQUESTED:          0  ISSUED:          0  USEFUL:          0  USELESS:          0
STLB USEFUL LOAD PREFETCHES:          0 PREFETCH ISSUED TO LOWER LEVEL:          0  ACCURACY: -nan
STLB TIMELY PREFETCHES:          0 LATE PREFETCHES: 14 DROPPED PREFETCHES: 14859
STLB PREFETCHES SAME FILL-ORIGIN LEVEL: 0 DIFFERENT FILL-ORIGIN LEVEL: 0
STLB AVERAGE MISS LATENCY: 204.378 cycles
STLB RQ	ACCESS:   30983337	FORWARD:          0	MERGED:   23060228	TO_CACHE:    7923109

STLB Hit, L1D data hit: 0
STLB Hit, L2C data hit: 0
STLB Hit, LLC data hit: 0
STLB Hit, LLC data miss: 0
STLB STLB hints to L2: 0
L1D TOTAL     ACCESS:   62028830  HIT:   57771244  MISS:    4257586  HIT %:    93.1361  MISS %:    6.86388   MPKI: 21.2879
L1D LOAD      ACCESS:   31093018  HIT:   30959599  MISS:     133419  HIT %:    99.5709  MISS %:   0.429096   MPKI: 0.667095
L1D RFO       ACCESS:    2954909  HIT:    2952168  MISS:       2741  HIT %:    99.9072  MISS %:  0.0927609   MPKI: 0.013705
L1D PREFETCH  ACCESS:   27980903  HIT:   23859477  MISS:    4121426  HIT %:    85.2706  MISS %:    14.7294   MPKI: 20.6071
L1D PREFETCH  REQUESTED:   81404803  ISSUED:   65572115  USEFUL:    3853655  USELESS:     267762
L1D USEFUL LOAD PREFETCHES:    3853655 PREFETCH ISSUED TO LOWER LEVEL:    6957860  ACCURACY: 55.3856
L1D TIMELY PREFETCHES:    3853655 LATE PREFETCHES: 7 DROPPED PREFETCHES: 33029
L1D PREFETCHES SAME FILL-ORIGIN LEVEL: 4121474 DIFFERENT FILL-ORIGIN LEVEL: 2836386
L1D AVERAGE MISS LATENCY: 41.3364 cycles
L1D RQ	ACCESS:   58954082	FORWARD:          0	MERGED:   27823518	TO_CACHE:   31099768
L1D WQ	ACCESS:    2967095	FORWARD:      30796	MERGED:       4546	TO_CACHE:    2962549
L1D PQ	ACCESS:   34654637	FORWARD:          0	MERGED:    3737159	TO_CACHE:   30917478

L1D UNIQUE REGIONS ACCESSED: 0
L1D REGIONS CONFLICTS: 0
L1D Cross Page Prefetch Requests: 25298301
L1D Same Page Prefetch Requests: 22970894
L1D ROI Sum of L1D PQ occupancy: 472792369
L1D PREFETCHES PUSHED FROM L2C: 0
L1I TOTAL     ACCESS:   37102077  HIT:   37101985  MISS:         92  HIT %:    99.9998  MISS %: 0.000247965   MPKI: 0.00046
L1I LOAD      ACCESS:   37102077  HIT:   37101985  MISS:         92  HIT %:    99.9998  MISS %: 0.000247965   MPKI: 0.00046
L1I PREFETCH  REQUESTED:          0  ISSUED:          0  USEFUL:          0  USELESS:          0
L1I USEFUL LOAD PREFETCHES:          0 PREFETCH ISSUED TO LOWER LEVEL:          0  ACCURACY: -nan
L1I TIMELY PREFETCHES:          0 LATE PREFETCHES: 0 DROPPED PREFETCHES: 0
L1I PREFETCHES SAME FILL-ORIGIN LEVEL: 0 DIFFERENT FILL-ORIGIN LEVEL: 0
L1I AVERAGE MISS LATENCY: 176.141 cycles
L1I RQ	ACCESS:   73442913	FORWARD:          0	MERGED:   36340826	TO_CACHE:   37102087

BTB TOTAL     ACCESS:   32869650  HIT:   32861233  MISS:       8417  HIT %:    99.9744  MISS %:  0.0256072   MPKI: 0.042085
BTB BRANCH_DIRECT_JUMP	ACCESS:      10018  HIT:       9991  MISS:         27
BTB BRANCH_INDIRECT	ACCESS:          0  HIT:          0  MISS:          0
BTB BRANCH_CONDITIONAL	ACCESS:   30064978  HIT:   30064867  MISS:        111
BTB BRANCH_DIRECT_CALL	ACCESS:     706558  HIT:     706534  MISS:         24
BTB BRANCH_INDIRECT_CALL	ACCESS:     690770  HIT:     690753  MISS:         17
BTB BRANCH_RETURN	ACCESS:    1397326  HIT:    1389088  MISS:       8238
BTB BRANCH_OTHER ACCESS:          0  HIT:          0  MISS:          0

L2C TOTAL     ACCESS:    7108538  HIT:    3616630  MISS:    3491908  HIT %:    50.8773  MISS %:    49.1227   MPKI: 17.4595
L2C LOAD      ACCESS:     133504  HIT:     111379  MISS:      22125  HIT %:    83.4275  MISS %:    16.5725   MPKI: 0.110625
L2C DATA LOAD MPKI: 0.110165
L2C INSTRUCTION LOAD MPKI: 0.00046
L2C RFO       ACCESS:       2700  HIT:       1908  MISS:        792  HIT %:    70.6667  MISS %:    29.3333   MPKI: 0.00396
L2C PREFETCH  ACCESS:    6948060  HIT:    3479807  MISS:    3468253  HIT %:    50.0831  MISS %:    49.9169   MPKI: 17.3413
L2C DATA PREFETCH MPKI: 17.3413
L2C INSTRUCTION PREFETCH MPKI: 0
L2C WRITEBACK ACCESS:       8654  HIT:       8651  MISS:          3  HIT %:    99.9653  MISS %:  0.0346661   MPKI: 1.5e-05
L2C LOAD TRANSLATION ACCESS:        747  HIT:        478  MISS:        269  HIT %:    63.9893  MISS %:    36.0107   MPKI: 0.001345
L2C TRANSLATION FROM L1D PREFETCHER ACCESS:      14873  HIT:      14407  MISS:        466  HIT %:    96.8668  MISS %:    3.13319   MPKI: 0.00233
L2C PREFETCH  REQUESTED:          0  ISSUED:          0  USEFUL:      67548  USELESS:    3404358
L2C USEFUL LOAD PREFETCHES:      67548 PREFETCH ISSUED TO LOWER LEVEL:    3468257  ACCURACY: 1.94761
L2C TIMELY PREFETCHES:      67548 LATE PREFETCHES: 5 DROPPED PREFETCHES: 0
L2C PREFETCHES SAME FILL-ORIGIN LEVEL: 1299622 DIFFERENT FILL-ORIGIN LEVEL: 0
L2C AVERAGE MISS LATENCY: 49.5922 cycles
L2C RQ	ACCESS:     151824	FORWARD:          0	MERGED:          0	TO_CACHE:     151824
L2C WQ	ACCESS:       8654	FORWARD:          4	MERGED:          0	TO_CACHE:       8654
L2C PQ	ACCESS:    6957860	FORWARD:          0	MERGED:        146	TO_CACHE:    6957710

L2C Instructions Evicting Data 92
L2C Translations Evicting Data 734
L2C Data Evicting Data 3490390
L2C Instructions Evicting Instructions 0
L2C Translations Evicting Instructions 1
L2C Data Evicting Instructions 74
L2C Instructions Evicting Translations 0
L2C Translations Evicting Translations 0
L2C Data Evicting Translations 614
L2C Dense regions hint from L2: 0
PSCL5 TOTAL     ACCESS:      15620  HIT:      15620  MISS:          0  HIT %:        100  MISS %:          0   MPKI: 0
PSCL5 LOAD TRANSLATION ACCESS:        747  HIT:        747  MISS:          0  HIT %:        100  MISS %:          0   MPKI: 0
PSCL5 TRANSLATION FROM L1D PREFETCHER ACCESS:      14873  HIT:      14873  MISS:          0  HIT %:        100  MISS %:          0   MPKI: 0
PSCL5 PREFETCH  REQUESTED:          0  ISSUED:          0  USEFUL:          0  USELESS:          0
PSCL5 USEFUL LOAD PREFETCHES:          0 PREFETCH ISSUED TO LOWER LEVEL:          0  ACCURACY: -nan
PSCL5 TIMELY PREFETCHES:          0 LATE PREFETCHES: 0 DROPPED PREFETCHES: 0
PSCL5 PREFETCHES SAME FILL-ORIGIN LEVEL: 0 DIFFERENT FILL-ORIGIN LEVEL: 0

PSCL4 TOTAL     ACCESS:      15620  HIT:      15620  MISS:          0  HIT %:        100  MISS %:          0   MPKI: 0
PSCL4 LOAD TRANSLATION ACCESS:        747  HIT:        747  MISS:          0  HIT %:        100  MISS %:          0   MPKI: 0
PSCL4 TRANSLATION FROM L1D PREFETCHER ACCESS:      14873  HIT:      14873  MISS:          0  HIT %:        100  MISS %:          0   MPKI: 0
PSCL4 PREFETCH  REQUESTED:          0  ISSUED:          0  USEFUL:          0  USELESS:          0
PSCL4 USEFUL LOAD PREFETCHES:          0 PREFETCH ISSUED TO LOWER LEVEL:          0  ACCURACY: -nan
PSCL4 TIMELY PREFETCHES:          0 LATE PREFETCHES: 0 DROPPED PREFETCHES: 0
PSCL4 PREFETCHES SAME FILL-ORIGIN LEVEL: 0 DIFFERENT FILL-ORIGIN LEVEL: 0

PSCL3 TOTAL     ACCESS:      15620  HIT:      15620  MISS:          0  HIT %:        100  MISS %:          0   MPKI: 0
PSCL3 LOAD TRANSLATION ACCESS:        747  HIT:        747  MISS:          0  HIT %:        100  MISS %:          0   MPKI: 0
PSCL3 TRANSLATION FROM L1D PREFETCHER ACCESS:      14873  HIT:      14873  MISS:          0  HIT %:        100  MISS %:          0   MPKI: 0
PSCL3 PREFETCH  REQUESTED:          0  ISSUED:          0  USEFUL:          0  USELESS:          0
PSCL3 USEFUL LOAD PREFETCHES:          0 PREFETCH ISSUED TO LOWER LEVEL:          0  ACCURACY: -nan
PSCL3 TIMELY PREFETCHES:          0 LATE PREFETCHES: 0 DROPPED PREFETCHES: 0
PSCL3 PREFETCHES SAME FILL-ORIGIN LEVEL: 0 DIFFERENT FILL-ORIGIN LEVEL: 0

PSCL2 TOTAL     ACCESS:      15620  HIT:      15610  MISS:         10  HIT %:     99.936  MISS %:  0.0640205   MPKI: 5e-05
PSCL2 LOAD TRANSLATION ACCESS:        747  HIT:        737  MISS:         10  HIT %:    98.6613  MISS %:    1.33869   MPKI: 5e-05
PSCL2 TRANSLATION FROM L1D PREFETCHER ACCESS:      14873  HIT:      14873  MISS:          0  HIT %:        100  MISS %:          0   MPKI: 0
PSCL2 PREFETCH  REQUESTED:          0  ISSUED:          0  USEFUL:          0  USELESS:          0
PSCL2 USEFUL LOAD PREFETCHES:          0 PREFETCH ISSUED TO LOWER LEVEL:          0  ACCURACY: -nan
PSCL2 TIMELY PREFETCHES:          0 LATE PREFETCHES: 0 DROPPED PREFETCHES: 0
PSCL2 PREFETCHES SAME FILL-ORIGIN LEVEL: 0 DIFFERENT FILL-ORIGIN LEVEL: 0

LLC TOTAL     ACCESS:    3493296  HIT:    2771720  MISS:     721576  HIT %:     79.344  MISS %:     20.656   MPKI: 3.60788
LLC LOAD      ACCESS:      22125  HIT:      16576  MISS:       5549  HIT %:    74.9198  MISS %:    25.0802   MPKI: 0.027745
LLC RFO       ACCESS:        787  HIT:        333  MISS:        454  HIT %:    42.3126  MISS %:    57.6874   MPKI: 0.00227
LLC PREFETCH  ACCESS:    3468258  HIT:    2753167  MISS:     715091  HIT %:    79.3818  MISS %:    20.6182   MPKI: 3.57545
LLC WRITEBACK ACCESS:       1391  HIT:       1328  MISS:         63  HIT %:    95.4709  MISS %:    4.52912   MPKI: 0.000315
LLC LOAD TRANSLATION ACCESS:        269  HIT:          4  MISS:        265  HIT %:    1.48699  MISS %:     98.513   MPKI: 0.001325
LLC TRANSLATION FROM L1D PREFETCHER ACCESS:        466  HIT:        312  MISS:        154  HIT %:    66.9528  MISS %:    33.0472   MPKI: 0.00077
LLC PREFETCH  REQUESTED:          0  ISSUED:          0  USEFUL:         85  USELESS:     716243
LLC USEFUL LOAD PREFETCHES:         85 PREFETCH ISSUED TO LOWER LEVEL:     715091  ACCURACY: 0.0118866
LLC TIMELY PREFETCHES:         85 LATE PREFETCHES: 0 DROPPED PREFETCHES: 0
LLC PREFETCHES SAME FILL-ORIGIN LEVEL: 0 DIFFERENT FILL-ORIGIN LEVEL: 0
LLC AVERAGE MISS LATENCY: 94.7917 cycles
LLC RQ	ACCESS:      23647	FORWARD:          0	MERGED:          0	TO_CACHE:      23647
LLC WQ	ACCESS:       1391	FORWARD:          0	MERGED:          0	TO_CACHE:       1391
LLC PQ	ACCESS:    3468257	FORWARD:          0	MERGED:          0	TO_CACHE:    3468257

LLC Dense regions hint to LLC: 0

RAW hits: 11166
Loads Generated: 58965248
Loads sent to L1D: 58954082
Stores Generated: 2967092
Stores sent to L1D: 2967095
Major fault: 0 Minor fault: 1462
Allocated PAGES: 1462

DRAM Statistics
 CHANNEL 0
 RQ ROW_BUFFER_HIT:     616326  ROW_BUFFER_MISS:     105187
 DBUS_CONGESTED:          0
 WQ ROW_BUFFER_HIT:         66  ROW_BUFFER_MISS:        788  FULL:          0

 AVG_CONGESTED_CYCLE: -
 All warmup complete: 2
Channel 0 Bank busy for read cycles: 0
Channel 0 Bank busy for write cycles: 0
Channel 0
Rank 0
0banks busy for read cycles: 203515321
0banks busy for write cycles: 754
1banks busy for read cycles: 13658726
1banks busy for write cycles: 117594
2banks busy for read cycles: 4750650
2banks busy for write cycles: 11940
3banks busy for read cycles: 3014043
3banks busy for write cycles: 2083
4banks busy for read cycles: 1901662
4banks busy for write cycles: 0
5banks busy for read cycles: 900647
5banks busy for write cycles: 0
6banks busy for read cycles: 278684
6banks busy for write cycles: 0
7banks busy for read cycles: 76901
7banks busy for write cycles: 0
8banks busy for read cycles: 9010
8banks busy for write cycles: 0

CPU 0 Branch Prediction Accuracy: 99.9862% MPKI: 0.03627 Average ROB Occupancy at Mispredict: 62.2004
Branch types
NOT_BRANCH: 144470826 72.2354%
BRANCH_DIRECT_JUMP: 10018 0.005009%
BRANCH_INDIRECT: 0 0%
BRANCH_CONDITIONAL: 52724206 26.3621%
BRANCH_DIRECT_CALL: 706558 0.353279%
BRANCH_INDIRECT_CALL: 690770 0.345385%
BRANCH_RETURN: 1397326 0.698663%
BRANCH_OTHER: 0 0%

DRAM PAGES: 1048576
Allocated PAGES: 1462
