
*** ChampSim Multicore Out-of-Order Simulator ***

Warmup Instructions: 50000000
Simulation Instructions: 200000000
Number of CPUs: 1
LLC sets: 2048
LLC ways: 16
Off-chip DRAM Size: 4096 MB Channels: 1 Width: 64-bit Data Rate: 6400 MT/s
argv[0]: ./ChampSim/Berti/bin/multiperspective_perceptron8kb-no-vberti-no-no-no-no-no-lru-lru-lru-srrip-drrip-lru-lru-lru-1core-no
argv[1]: -warmup_instructions
argv[2]: 50000000
argv[3]: -simulation_instructions
argv[4]: 200000000
argv[5]: -traces
argv[6]: traces/spec2k17_ten/623.xalancbmk_s-325B.champsimtrace.xz
CPU 0 runs traces/spec2k17_ten/623.xalancbmk_s-325B.champsimtrace.xz
.xz
CPU 0 Multiperspective perceptron branch predictor
BTB has LRU replacement policy
ITLB has LRU replacement policy
DTLB has LRU replacement policy
STLB has LRU replacement policy
L1I has LRU replacement policy
History Sets: 8
History Ways: 16
BERTI Size: 16
BERTI Stride Size: 16
L1D has LRU replacement policy
Initialize SRRIP state for L2C
Initialize DRRIP state for LLC
Heartbeat CPU 0 instructions: 10000001 cycles: 3730068 heartbeat IPC: 2.68092 cumulative IPC: 2.68092 (Simulation time: 0 hr 5 min 46 sec) 
Heartbeat CPU 0 instructions: 20000002 cycles: 7385347 heartbeat IPC: 2.73577 cumulative IPC: 2.70807 (Simulation time: 0 hr 10 min 3 sec) 
Heartbeat CPU 0 instructions: 30000000 cycles: 11093069 heartbeat IPC: 2.69707 cumulative IPC: 2.70439 (Simulation time: 0 hr 14 min 8 sec) 
Heartbeat CPU 0 instructions: 40000000 cycles: 14839811 heartbeat IPC: 2.66899 cumulative IPC: 2.69545 (Simulation time: 0 hr 21 min 32 sec) 
Heartbeat CPU 0 instructions: 50000000 cycles: 18605153 heartbeat IPC: 2.6558 cumulative IPC: 2.68743 (Simulation time: 0 hr 27 min 51 sec) 

Warmup complete CPU 0 instructions: 50000004 cycles: 18605154 (Simulation time: 0 hr 27 min 51 sec) 

Heartbeat CPU 0 instructions: 60000000 cycles: 33964802 heartbeat IPC: 0.651057 cumulative IPC: 0.651056 (Simulation time: 0 hr 33 min 32 sec) 
Heartbeat CPU 0 instructions: 70000001 cycles: 63392133 heartbeat IPC: 0.33982 cumulative IPC: 0.446558 (Simulation time: 0 hr 43 min 9 sec) 
Heartbeat CPU 0 instructions: 80000000 cycles: 96048508 heartbeat IPC: 0.306219 cumulative IPC: 0.38738 (Simulation time: 0 hr 53 min 13 sec) 
Heartbeat CPU 0 instructions: 90000003 cycles: 128114824 heartbeat IPC: 0.311854 cumulative IPC: 0.365265 (Simulation time: 1 hr 4 min 39 sec) 
Heartbeat CPU 0 instructions: 100000000 cycles: 156028240 heartbeat IPC: 0.358251 cumulative IPC: 0.36384 (Simulation time: 1 hr 14 min 0 sec) 
Heartbeat CPU 0 instructions: 110000000 cycles: 180083375 heartbeat IPC: 0.415712 cumulative IPC: 0.371567 (Simulation time: 1 hr 19 min 57 sec) 
Heartbeat CPU 0 instructions: 120000001 cycles: 192642130 heartbeat IPC: 0.796257 cumulative IPC: 0.402213 (Simulation time: 1 hr 27 min 52 sec) 
Heartbeat CPU 0 instructions: 130000000 cycles: 211935408 heartbeat IPC: 0.518315 cumulative IPC: 0.4138 (Simulation time: 1 hr 36 min 48 sec) 
Heartbeat CPU 0 instructions: 140000000 cycles: 244107004 heartbeat IPC: 0.310833 cumulative IPC: 0.39911 (Simulation time: 1 hr 44 min 29 sec) 
Heartbeat CPU 0 instructions: 150000000 cycles: 272172453 heartbeat IPC: 0.35631 cumulative IPC: 0.394373 (Simulation time: 1 hr 53 min 19 sec) 
Heartbeat CPU 0 instructions: 160000000 cycles: 288885595 heartbeat IPC: 0.598332 cumulative IPC: 0.406985 (Simulation time: 1 hr 59 min 31 sec) 
Heartbeat CPU 0 instructions: 170000000 cycles: 311588448 heartbeat IPC: 0.440473 cumulative IPC: 0.40958 (Simulation time: 2 hr 9 min 8 sec) 
Heartbeat CPU 0 instructions: 180000003 cycles: 342697426 heartbeat IPC: 0.321451 cumulative IPC: 0.40112 (Simulation time: 2 hr 18 min 42 sec) 
Heartbeat CPU 0 instructions: 190000002 cycles: 363897796 heartbeat IPC: 0.47169 cumulative IPC: 0.405453 (Simulation time: 2 hr 28 min 34 sec) 
Heartbeat CPU 0 instructions: 200000000 cycles: 395088874 heartbeat IPC: 0.320604 cumulative IPC: 0.398424 (Simulation time: 2 hr 36 min 30 sec) 
Heartbeat CPU 0 instructions: 210000000 cycles: 422459422 heartbeat IPC: 0.365356 cumulative IPC: 0.396183 (Simulation time: 2 hr 44 min 44 sec) 
Heartbeat CPU 0 instructions: 220000000 cycles: 447706123 heartbeat IPC: 0.396091 cumulative IPC: 0.396177 (Simulation time: 2 hr 52 min 39 sec) 
Heartbeat CPU 0 instructions: 230000001 cycles: 463356476 heartbeat IPC: 0.638963 cumulative IPC: 0.404721 (Simulation time: 2 hr 58 min 54 sec) 
Heartbeat CPU 0 instructions: 240000003 cycles: 476169291 heartbeat IPC: 0.780469 cumulative IPC: 0.415242 (Simulation time: 3 hr 5 min 12 sec) 
Heartbeat CPU 0 instructions: 250000002 cycles: 493850160 heartbeat IPC: 0.565583 cumulative IPC: 0.420836 (Simulation time: 3 hr 10 min 51 sec) 
Finished CPU 0 instructions: 200000002 cycles: 475245007 cumulative IPC: 0.420836 (Simulation time: 3 hr 10 min 51 sec) 

ChampSim completed all CPUs

Region of Interest Statistics

CPU 0 cumulative IPC: 0.420836 instructions: 200000002 cycles: 475245007
ITLB TOTAL     ACCESS:   37908597  HIT:   37792555  MISS:     116042  HIT %:    99.6939  MISS %:    0.30611   MPKI: 0.58021
ITLB LOAD TRANSLATION ACCESS:   37908597  HIT:   37792555  MISS:     116042  HIT %:    99.6939  MISS %:    0.30611   MPKI: 0.58021
ITLB PREFETCH  REQUESTED:          0  ISSUED:          0  USEFUL:          0  USELESS:          0
ITLB USEFUL LOAD PREFETCHES:          0 PREFETCH ISSUED TO LOWER LEVEL:          0  ACCURACY: -nan
ITLB TIMELY PREFETCHES:          0 LATE PREFETCHES: 0 DROPPED PREFETCHES: 0
ITLB PREFETCHES SAME FILL-ORIGIN LEVEL: 0 DIFFERENT FILL-ORIGIN LEVEL: 0
ITLB AVERAGE MISS LATENCY: 9.38855 cycles
ITLB RQ	ACCESS:   42436933	FORWARD:          0	MERGED:    4503750	TO_CACHE:   37933183

DTLB TOTAL     ACCESS:   43745961  HIT:   39290851  MISS:    4455110  HIT %:     89.816  MISS %:     10.184   MPKI: 22.2755
DTLB LOAD TRANSLATION ACCESS:   43745961  HIT:   39290851  MISS:    4455110  HIT %:     89.816  MISS %:     10.184   MPKI: 22.2755
DTLB PREFETCH  REQUESTED:          0  ISSUED:          0  USEFUL:          0  USELESS:          0
DTLB USEFUL LOAD PREFETCHES:          0 PREFETCH ISSUED TO LOWER LEVEL:          0  ACCURACY: -nan
DTLB TIMELY PREFETCHES:          0 LATE PREFETCHES: 0 DROPPED PREFETCHES: 0
DTLB PREFETCHES SAME FILL-ORIGIN LEVEL: 0 DIFFERENT FILL-ORIGIN LEVEL: 0
DTLB AVERAGE MISS LATENCY: 9.08904 cycles
DTLB RQ	ACCESS:   49973481	FORWARD:          0	MERGED:    6160275	TO_CACHE:   43813206

STLB TOTAL     ACCESS:    7569450  HIT:    7563489  MISS:       5961  HIT %:    99.9212  MISS %:  0.0787508   MPKI: 0.029805
STLB LOAD TRANSLATION ACCESS:    4571152  HIT:    4565332  MISS:       5820  HIT %:    99.8727  MISS %:    0.12732   MPKI: 0.0291
STLB TRANSLATION FROM L1D PREFETCHER ACCESS:    2998298  HIT:    2998157  MISS:        141  HIT %:    99.9953  MISS %: 0.00470267   MPKI: 0.000705
STLB PREFETCH  REQUESTED:          0  ISSUED:          0  USEFUL:        124  USELESS:         20
STLB USEFUL LOAD PREFETCHES:        124 PREFETCH ISSUED TO LOWER LEVEL:          0  ACCURACY: inf
STLB TIMELY PREFETCHES:        124 LATE PREFETCHES: 0 DROPPED PREFETCHES: 19033
STLB PREFETCHES SAME FILL-ORIGIN LEVEL: 0 DIFFERENT FILL-ORIGIN LEVEL: 0
STLB AVERAGE MISS LATENCY: 75.1738 cycles
STLB RQ	ACCESS:   18275048	FORWARD:          0	MERGED:   10686153	TO_CACHE:    7588895

STLB Hit, L1D data hit: 0
STLB Hit, L2C data hit: 0
STLB Hit, LLC data hit: 0
STLB Hit, LLC data miss: 0
STLB STLB hints to L2: 0
L1D TOTAL     ACCESS:   61742462  HIT:   54620304  MISS:    7122158  HIT %:    88.4647  MISS %:    11.5353   MPKI: 35.6108
L1D LOAD      ACCESS:   34075571  HIT:   27615171  MISS:    6460400  HIT %:     81.041  MISS %:     18.959   MPKI: 32.302
L1D RFO       ACCESS:   14980503  HIT:   14676056  MISS:     304447  HIT %:    97.9677  MISS %:    2.03229   MPKI: 1.52223
L1D PREFETCH  ACCESS:   12686388  HIT:   12329077  MISS:     357311  HIT %:    97.1835  MISS %:    2.81649   MPKI: 1.78655
L1D PREFETCH  REQUESTED:   34922810  ISSUED:   34914408  USEFUL:     314552  USELESS:      42775
L1D USEFUL LOAD PREFETCHES:     314552 PREFETCH ISSUED TO LOWER LEVEL:    1307471  ACCURACY: 24.058
L1D TIMELY PREFETCHES:     314552 LATE PREFETCHES: 6024 DROPPED PREFETCHES: 20353
L1D PREFETCHES SAME FILL-ORIGIN LEVEL: 363621 DIFFERENT FILL-ORIGIN LEVEL: 943850
L1D AVERAGE MISS LATENCY: 21.2381 cycles
L1D RQ	ACCESS:   61928038	FORWARD:          0	MERGED:   26151707	TO_CACHE:   34269760
L1D WQ	ACCESS:   15913931	FORWARD:    1506627	MERGED:     210210	TO_CACHE:   15703721
L1D PQ	ACCESS:   21210512	FORWARD:          0	MERGED:    7506560	TO_CACHE:   13703896

L1D UNIQUE REGIONS ACCESSED: 0
L1D REGIONS CONFLICTS: 0
L1D Cross Page Prefetch Requests: 3257489
L1D Same Page Prefetch Requests: 23211064
L1D ROI Sum of L1D PQ occupancy: 194362307
L1D PREFETCHES PUSHED FROM L2C: 0
L1I TOTAL     ACCESS:   42309955  HIT:   41780010  MISS:     529945  HIT %:    98.7475  MISS %:    1.25253   MPKI: 2.64972
L1I LOAD      ACCESS:   42309955  HIT:   41780010  MISS:     529945  HIT %:    98.7475  MISS %:    1.25253   MPKI: 2.64972
L1I PREFETCH  REQUESTED:          0  ISSUED:          0  USEFUL:          0  USELESS:          0
L1I USEFUL LOAD PREFETCHES:          0 PREFETCH ISSUED TO LOWER LEVEL:          0  ACCURACY: -nan
L1I TIMELY PREFETCHES:          0 LATE PREFETCHES: 0 DROPPED PREFETCHES: 0
L1I PREFETCHES SAME FILL-ORIGIN LEVEL: 0 DIFFERENT FILL-ORIGIN LEVEL: 0
L1I AVERAGE MISS LATENCY: 15.7528 cycles
L1I RQ	ACCESS:   56319487	FORWARD:          0	MERGED:   13882554	TO_CACHE:   42436933

BTB TOTAL     ACCESS:   39024827  HIT:   36995293  MISS:    2029534  HIT %:    94.7994  MISS %:    5.20062   MPKI: 10.1477
BTB BRANCH_DIRECT_JUMP	ACCESS:    1795300  HIT:    1793180  MISS:       2120
BTB BRANCH_INDIRECT	ACCESS:     640060  HIT:     545614  MISS:      94446
BTB BRANCH_CONDITIONAL	ACCESS:   29688217  HIT:   29686955  MISS:       1262
BTB BRANCH_DIRECT_CALL	ACCESS:    2165586  HIT:    2164341  MISS:       1245
BTB BRANCH_INDIRECT_CALL	ACCESS:    1285040  HIT:    1090203  MISS:     194837
BTB BRANCH_RETURN	ACCESS:    3450624  HIT:    1715000  MISS:    1735624
BTB BRANCH_OTHER ACCESS:          0  HIT:          0  MISS:          0

L2C TOTAL     ACCESS:    9111269  HIT:    8743692  MISS:     367577  HIT %:    95.9657  MISS %:    4.03431   MPKI: 1.83788
L2C LOAD      ACCESS:    6984308  HIT:    6890497  MISS:      93811  HIT %:    98.6568  MISS %:    1.34317   MPKI: 0.469055
L2C DATA LOAD MPKI: 0.423235
L2C INSTRUCTION LOAD MPKI: 0.04582
L2C RFO       ACCESS:     304161  HIT:      63892  MISS:     240269  HIT %:     21.006  MISS %:     78.994   MPKI: 1.20134
L2C PREFETCH  ACCESS:    1291593  HIT:    1265863  MISS:      25730  HIT %:    98.0079  MISS %:    1.99211   MPKI: 0.12865
L2C DATA PREFETCH MPKI: 0.12865
L2C INSTRUCTION PREFETCH MPKI: 0
L2C WRITEBACK ACCESS:     506160  HIT:     501905  MISS:       4255  HIT %:    99.1594  MISS %:   0.840643   MPKI: 0.021275
L2C LOAD TRANSLATION ACCESS:       5846  HIT:       2818  MISS:       3028  HIT %:    48.2039  MISS %:    51.7961   MPKI: 0.01514
L2C TRANSLATION FROM L1D PREFETCHER ACCESS:      19201  HIT:      18717  MISS:        484  HIT %:    97.4793  MISS %:     2.5207   MPKI: 0.00242
L2C PREFETCH  REQUESTED:          0  ISSUED:          0  USEFUL:       6014  USELESS:      20406
L2C USEFUL LOAD PREFETCHES:       6014 PREFETCH ISSUED TO LOWER LEVEL:      26350  ACCURACY: 22.8235
L2C TIMELY PREFETCHES:       6014 LATE PREFETCHES: 620 DROPPED PREFETCHES: 0
L2C PREFETCHES SAME FILL-ORIGIN LEVEL: 23245 DIFFERENT FILL-ORIGIN LEVEL: 0
L2C AVERAGE MISS LATENCY: 128.214 cycles
L2C RQ	ACCESS:    7313528	FORWARD:          0	MERGED:          0	TO_CACHE:    7313516
L2C WQ	ACCESS:     506160	FORWARD:         23	MERGED:          0	TO_CACHE:     506160
L2C PQ	ACCESS:    1307471	FORWARD:          0	MERGED:        723	TO_CACHE:    1306737

L2C Instructions Evicting Data 7690
L2C Translations Evicting Data 3399
L2C Data Evicting Data 339716
L2C Instructions Evicting Instructions 1307
L2C Translations Evicting Instructions 94
L2C Data Evicting Instructions 7745
L2C Instructions Evicting Translations 167
L2C Translations Evicting Translations 19
L2C Data Evicting Translations 3185
L2C Dense regions hint from L2: 0
PSCL5 TOTAL     ACCESS:      24994  HIT:      24994  MISS:          0  HIT %:        100  MISS %:          0   MPKI: 0
PSCL5 LOAD TRANSLATION ACCESS:       5820  HIT:       5820  MISS:          0  HIT %:        100  MISS %:          0   MPKI: 0
PSCL5 TRANSLATION FROM L1D PREFETCHER ACCESS:      19174  HIT:      19174  MISS:          0  HIT %:        100  MISS %:          0   MPKI: 0
PSCL5 PREFETCH  REQUESTED:          0  ISSUED:          0  USEFUL:          0  USELESS:          0
PSCL5 USEFUL LOAD PREFETCHES:          0 PREFETCH ISSUED TO LOWER LEVEL:          0  ACCURACY: -nan
PSCL5 TIMELY PREFETCHES:          0 LATE PREFETCHES: 0 DROPPED PREFETCHES: 0
PSCL5 PREFETCHES SAME FILL-ORIGIN LEVEL: 0 DIFFERENT FILL-ORIGIN LEVEL: 0

PSCL4 TOTAL     ACCESS:      24994  HIT:      24994  MISS:          0  HIT %:        100  MISS %:          0   MPKI: 0
PSCL4 LOAD TRANSLATION ACCESS:       5820  HIT:       5820  MISS:          0  HIT %:        100  MISS %:          0   MPKI: 0
PSCL4 TRANSLATION FROM L1D PREFETCHER ACCESS:      19174  HIT:      19174  MISS:          0  HIT %:        100  MISS %:          0   MPKI: 0
PSCL4 PREFETCH  REQUESTED:          0  ISSUED:          0  USEFUL:          0  USELESS:          0
PSCL4 USEFUL LOAD PREFETCHES:          0 PREFETCH ISSUED TO LOWER LEVEL:          0  ACCURACY: -nan
PSCL4 TIMELY PREFETCHES:          0 LATE PREFETCHES: 0 DROPPED PREFETCHES: 0
PSCL4 PREFETCHES SAME FILL-ORIGIN LEVEL: 0 DIFFERENT FILL-ORIGIN LEVEL: 0

PSCL3 TOTAL     ACCESS:      24994  HIT:      24994  MISS:          0  HIT %:        100  MISS %:          0   MPKI: 0
PSCL3 LOAD TRANSLATION ACCESS:       5820  HIT:       5820  MISS:          0  HIT %:        100  MISS %:          0   MPKI: 0
PSCL3 TRANSLATION FROM L1D PREFETCHER ACCESS:      19174  HIT:      19174  MISS:          0  HIT %:        100  MISS %:          0   MPKI: 0
PSCL3 PREFETCH  REQUESTED:          0  ISSUED:          0  USEFUL:          0  USELESS:          0
PSCL3 USEFUL LOAD PREFETCHES:          0 PREFETCH ISSUED TO LOWER LEVEL:          0  ACCURACY: -nan
PSCL3 TIMELY PREFETCHES:          0 LATE PREFETCHES: 0 DROPPED PREFETCHES: 0
PSCL3 PREFETCHES SAME FILL-ORIGIN LEVEL: 0 DIFFERENT FILL-ORIGIN LEVEL: 0

PSCL2 TOTAL     ACCESS:      24967  HIT:      24936  MISS:         31  HIT %:    99.8758  MISS %:   0.124164   MPKI: 0.000155
PSCL2 LOAD TRANSLATION ACCESS:       5820  HIT:       5789  MISS:         31  HIT %:    99.4674  MISS %:   0.532646   MPKI: 0.000155
PSCL2 TRANSLATION FROM L1D PREFETCHER ACCESS:      19147  HIT:      19147  MISS:          0  HIT %:        100  MISS %:          0   MPKI: 0
PSCL2 PREFETCH  REQUESTED:          0  ISSUED:          0  USEFUL:          0  USELESS:          0
PSCL2 USEFUL LOAD PREFETCHES:          0 PREFETCH ISSUED TO LOWER LEVEL:          0  ACCURACY: -nan
PSCL2 TIMELY PREFETCHES:          0 LATE PREFETCHES: 0 DROPPED PREFETCHES: 0
PSCL2 PREFETCHES SAME FILL-ORIGIN LEVEL: 0 DIFFERENT FILL-ORIGIN LEVEL: 0

LLC TOTAL     ACCESS:     659387  HIT:     399293  MISS:     260094  HIT %:    60.5552  MISS %:    39.4448   MPKI: 1.30047
LLC LOAD      ACCESS:      93794  HIT:      49648  MISS:      44146  HIT %:     52.933  MISS %:     47.067   MPKI: 0.22073
LLC RFO       ACCESS:     239666  HIT:      41459  MISS:     198207  HIT %:    17.2987  MISS %:    82.7013   MPKI: 0.991035
LLC PREFETCH  ACCESS:      26350  HIT:      14251  MISS:      12099  HIT %:    54.0835  MISS %:    45.9165   MPKI: 0.060495
LLC WRITEBACK ACCESS:     296065  HIT:     291468  MISS:       4597  HIT %:    98.4473  MISS %:     1.5527   MPKI: 0.022985
LLC LOAD TRANSLATION ACCESS:       3028  HIT:       2025  MISS:       1003  HIT %:    66.8758  MISS %:    33.1242   MPKI: 0.005015
LLC TRANSLATION FROM L1D PREFETCHER ACCESS:        484  HIT:        442  MISS:         42  HIT %:    91.3223  MISS %:    8.67769   MPKI: 0.00021
LLC PREFETCH  REQUESTED:          0  ISSUED:          0  USEFUL:       3077  USELESS:       9551
LLC USEFUL LOAD PREFETCHES:       3077 PREFETCH ISSUED TO LOWER LEVEL:      12099  ACCURACY: 25.4319
LLC TIMELY PREFETCHES:       3077 LATE PREFETCHES: 0 DROPPED PREFETCHES: 0
LLC PREFETCHES SAME FILL-ORIGIN LEVEL: 0 DIFFERENT FILL-ORIGIN LEVEL: 0
LLC AVERAGE MISS LATENCY: 139.344 cycles
LLC RQ	ACCESS:     336972	FORWARD:          0	MERGED:          0	TO_CACHE:     336972
LLC WQ	ACCESS:     296065	FORWARD:          0	MERGED:          0	TO_CACHE:     296065
LLC PQ	ACCESS:      26350	FORWARD:          0	MERGED:          0	TO_CACHE:      26350

LLC Dense regions hint to LLC: 0

RAW hits: 690139
Loads Generated: 62618177
Loads sent to L1D: 61928038
Stores Generated: 15913931
Stores sent to L1D: 15913931
Major fault: 0 Minor fault: 2601
Allocated PAGES: 2601

DRAM Statistics
 CHANNEL 0
 RQ ROW_BUFFER_HIT:     103461  ROW_BUFFER_MISS:     152034
 DBUS_CONGESTED:         31
 WQ ROW_BUFFER_HIT:      17948  ROW_BUFFER_MISS:     219604  FULL:          0

 AVG_CONGESTED_CYCLE: 5
 All warmup complete: 2
Channel 0 Bank busy for read cycles: 0
Channel 0 Bank busy for write cycles: 0
Channel 0
Rank 0
0banks busy for read cycles: 449300410
0banks busy for write cycles: 57478
1banks busy for read cycles: 8737787
1banks busy for write cycles: 6913944
2banks busy for read cycles: 1479628
2banks busy for write cycles: 1968445
3banks busy for read cycles: 469551
3banks busy for write cycles: 591647
4banks busy for read cycles: 473225
4banks busy for write cycles: 358715
5banks busy for read cycles: 348328
5banks busy for write cycles: 329670
6banks busy for read cycles: 375598
6banks busy for write cycles: 363385
7banks busy for read cycles: 428918
7banks busy for write cycles: 552851
8banks busy for read cycles: 748707
8banks busy for write cycles: 1746721

CPU 0 Branch Prediction Accuracy: 99.6949% MPKI: 0.741145 Average ROB Occupancy at Mispredict: 65.0408
Branch types
NOT_BRANCH: 142072146 71.0361%
BRANCH_DIRECT_JUMP: 1795300 0.89765%
BRANCH_INDIRECT: 640060 0.32003%
BRANCH_CONDITIONAL: 48590952 24.2955%
BRANCH_DIRECT_CALL: 2165586 1.08279%
BRANCH_INDIRECT_CALL: 1285040 0.64252%
BRANCH_RETURN: 3450624 1.72531%
BRANCH_OTHER: 0 0%

DRAM PAGES: 1048576
Allocated PAGES: 2601
