
*** ChampSim Multicore Out-of-Order Simulator ***

Warmup Instructions: 50000000
Simulation Instructions: 200000000
Number of CPUs: 1
LLC sets: 2048
LLC ways: 16
Off-chip DRAM Size: 4096 MB Channels: 1 Width: 64-bit Data Rate: 6400 MT/s
argv[0]: ./ChampSim/Berti/bin/multiperspective_perceptron8kb-no-vberti-no-no-no-no-no-lru-lru-lru-srrip-drrip-lru-lru-lru-1core-no
argv[1]: -warmup_instructions
argv[2]: 50000000
argv[3]: -simulation_instructions
argv[4]: 200000000
argv[5]: -traces
argv[6]: traces/spec2k17_ten/623.xalancbmk_s-592B.champsimtrace.xz
CPU 0 runs traces/spec2k17_ten/623.xalancbmk_s-592B.champsimtrace.xz
.xz
CPU 0 Multiperspective perceptron branch predictor
BTB has LRU replacement policy
ITLB has LRU replacement policy
DTLB has LRU replacement policy
STLB has LRU replacement policy
L1I has LRU replacement policy
History Sets: 8
History Ways: 16
BERTI Size: 16
BERTI Stride Size: 16
L1D has LRU replacement policy
Initialize SRRIP state for L2C
Initialize DRRIP state for LLC
Heartbeat CPU 0 instructions: 10000003 cycles: 3680509 heartbeat IPC: 2.71702 cumulative IPC: 2.71702 (Simulation time: 0 hr 11 min 25 sec) 
Heartbeat CPU 0 instructions: 20000000 cycles: 7224906 heartbeat IPC: 2.82135 cumulative IPC: 2.7682 (Simulation time: 0 hr 19 min 43 sec) 
Heartbeat CPU 0 instructions: 30000000 cycles: 10789236 heartbeat IPC: 2.80558 cumulative IPC: 2.78055 (Simulation time: 0 hr 27 min 6 sec) 
Heartbeat CPU 0 instructions: 40000001 cycles: 14452482 heartbeat IPC: 2.72982 cumulative IPC: 2.76769 (Simulation time: 0 hr 33 min 24 sec) 
Heartbeat CPU 0 instructions: 50000000 cycles: 18128266 heartbeat IPC: 2.72051 cumulative IPC: 2.75812 (Simulation time: 0 hr 40 min 2 sec) 

Warmup complete CPU 0 instructions: 50000004 cycles: 18128267 (Simulation time: 0 hr 40 min 2 sec) 

Heartbeat CPU 0 instructions: 60000000 cycles: 44147605 heartbeat IPC: 0.38433 cumulative IPC: 0.384329 (Simulation time: 0 hr 48 min 58 sec) 
Heartbeat CPU 0 instructions: 70000001 cycles: 68734264 heartbeat IPC: 0.406725 cumulative IPC: 0.39521 (Simulation time: 0 hr 58 min 20 sec) 
Heartbeat CPU 0 instructions: 80000001 cycles: 84630121 heartbeat IPC: 0.629095 cumulative IPC: 0.451115 (Simulation time: 1 hr 5 min 50 sec) 
Heartbeat CPU 0 instructions: 90000001 cycles: 98038725 heartbeat IPC: 0.74579 cumulative IPC: 0.50056 (Simulation time: 1 hr 14 min 18 sec) 
Heartbeat CPU 0 instructions: 100000001 cycles: 113687076 heartbeat IPC: 0.639045 cumulative IPC: 0.523238 (Simulation time: 1 hr 21 min 48 sec) 
Heartbeat CPU 0 instructions: 110000000 cycles: 136950240 heartbeat IPC: 0.429864 cumulative IPC: 0.504957 (Simulation time: 1 hr 33 min 3 sec) 
Heartbeat CPU 0 instructions: 120000002 cycles: 168181010 heartbeat IPC: 0.320197 cumulative IPC: 0.466503 (Simulation time: 1 hr 42 min 4 sec) 
Heartbeat CPU 0 instructions: 130000003 cycles: 196106027 heartbeat IPC: 0.358102 cumulative IPC: 0.449494 (Simulation time: 1 hr 50 min 27 sec) 
Heartbeat CPU 0 instructions: 140000000 cycles: 222014211 heartbeat IPC: 0.385978 cumulative IPC: 0.441423 (Simulation time: 1 hr 58 min 17 sec) 
Heartbeat CPU 0 instructions: 150000001 cycles: 242022019 heartbeat IPC: 0.499805 cumulative IPC: 0.44664 (Simulation time: 2 hr 4 min 4 sec) 
Heartbeat CPU 0 instructions: 160000001 cycles: 255686092 heartbeat IPC: 0.731846 cumulative IPC: 0.463045 (Simulation time: 2 hr 10 min 9 sec) 
Heartbeat CPU 0 instructions: 170000003 cycles: 272301138 heartbeat IPC: 0.601864 cumulative IPC: 0.47212 (Simulation time: 2 hr 17 min 18 sec) 
Heartbeat CPU 0 instructions: 180000002 cycles: 300208175 heartbeat IPC: 0.358333 cumulative IPC: 0.460862 (Simulation time: 2 hr 27 min 6 sec) 
Heartbeat CPU 0 instructions: 190000000 cycles: 330408267 heartbeat IPC: 0.331125 cumulative IPC: 0.448316 (Simulation time: 2 hr 36 min 59 sec) 
Heartbeat CPU 0 instructions: 200000001 cycles: 350493459 heartbeat IPC: 0.497879 cumulative IPC: 0.451311 (Simulation time: 2 hr 45 min 23 sec) 
Heartbeat CPU 0 instructions: 210000001 cycles: 379398728 heartbeat IPC: 0.345958 cumulative IPC: 0.442881 (Simulation time: 2 hr 55 min 19 sec) 
Heartbeat CPU 0 instructions: 220000000 cycles: 409828181 heartbeat IPC: 0.328629 cumulative IPC: 0.434006 (Simulation time: 3 hr 2 min 58 sec) 
Heartbeat CPU 0 instructions: 230000001 cycles: 437302078 heartbeat IPC: 0.363982 cumulative IPC: 0.429416 (Simulation time: 3 hr 10 min 47 sec) 
Heartbeat CPU 0 instructions: 240000000 cycles: 462858454 heartbeat IPC: 0.391292 cumulative IPC: 0.427225 (Simulation time: 3 hr 15 min 15 sec) 
Heartbeat CPU 0 instructions: 250000000 cycles: 487019933 heartbeat IPC: 0.413882 cumulative IPC: 0.426538 (Simulation time: 3 hr 19 min 4 sec) 
Finished CPU 0 instructions: 200000000 cycles: 468891667 cumulative IPC: 0.426538 (Simulation time: 3 hr 19 min 4 sec) 

ChampSim completed all CPUs

Region of Interest Statistics

CPU 0 cumulative IPC: 0.426538 instructions: 200000000 cycles: 468891667
ITLB TOTAL     ACCESS:   38936243  HIT:   38836484  MISS:      99759  HIT %:    99.7438  MISS %:   0.256211   MPKI: 0.498795
ITLB LOAD TRANSLATION ACCESS:   38936243  HIT:   38836484  MISS:      99759  HIT %:    99.7438  MISS %:   0.256211   MPKI: 0.498795
ITLB PREFETCH  REQUESTED:          0  ISSUED:          0  USEFUL:          0  USELESS:          0
ITLB USEFUL LOAD PREFETCHES:          0 PREFETCH ISSUED TO LOWER LEVEL:          0  ACCURACY: -nan
ITLB TIMELY PREFETCHES:          0 LATE PREFETCHES: 0 DROPPED PREFETCHES: 0
ITLB PREFETCHES SAME FILL-ORIGIN LEVEL: 0 DIFFERENT FILL-ORIGIN LEVEL: 0
ITLB AVERAGE MISS LATENCY: 10.3603 cycles
ITLB RQ	ACCESS:   43339235	FORWARD:          0	MERGED:    4381599	TO_CACHE:   38957636

DTLB TOTAL     ACCESS:   41104865  HIT:   36160818  MISS:    4944047  HIT %:    87.9721  MISS %:    12.0279   MPKI: 24.7202
DTLB LOAD TRANSLATION ACCESS:   41104865  HIT:   36160818  MISS:    4944047  HIT %:    87.9721  MISS %:    12.0279   MPKI: 24.7202
DTLB PREFETCH  REQUESTED:          0  ISSUED:          0  USEFUL:          0  USELESS:          0
DTLB USEFUL LOAD PREFETCHES:          0 PREFETCH ISSUED TO LOWER LEVEL:          0  ACCURACY: -nan
DTLB TIMELY PREFETCHES:          0 LATE PREFETCHES: 0 DROPPED PREFETCHES: 0
DTLB PREFETCHES SAME FILL-ORIGIN LEVEL: 0 DIFFERENT FILL-ORIGIN LEVEL: 0
DTLB AVERAGE MISS LATENCY: 10.3093 cycles
DTLB RQ	ACCESS:   47877189	FORWARD:          0	MERGED:    6674654	TO_CACHE:   41202535

STLB TOTAL     ACCESS:    8546575  HIT:    8262815  MISS:     283760  HIT %:    96.6798  MISS %:    3.32016   MPKI: 1.4188
STLB LOAD TRANSLATION ACCESS:    5043806  HIT:    4763499  MISS:     280307  HIT %:    94.4425  MISS %:    5.55745   MPKI: 1.40153
STLB TRANSLATION FROM L1D PREFETCHER ACCESS:    3502769  HIT:    3499316  MISS:       3453  HIT %:    99.9014  MISS %:  0.0985792   MPKI: 0.017265
STLB PREFETCH  REQUESTED:          0  ISSUED:          0  USEFUL:       3328  USELESS:        122
STLB USEFUL LOAD PREFETCHES:       3328 PREFETCH ISSUED TO LOWER LEVEL:          0  ACCURACY: inf
STLB TIMELY PREFETCHES:       3328 LATE PREFETCHES: 42 DROPPED PREFETCHES: 34345
STLB PREFETCHES SAME FILL-ORIGIN LEVEL: 0 DIFFERENT FILL-ORIGIN LEVEL: 0
STLB AVERAGE MISS LATENCY: 23.5496 cycles
STLB RQ	ACCESS:   21347740	FORWARD:          0	MERGED:   12766052	TO_CACHE:    8581688

STLB Hit, L1D data hit: 0
STLB Hit, L2C data hit: 0
STLB Hit, LLC data hit: 0
STLB Hit, LLC data miss: 0
STLB STLB hints to L2: 0
L1D TOTAL     ACCESS:   61028457  HIT:   52131258  MISS:    8897199  HIT %:    85.4212  MISS %:    14.5788   MPKI: 44.486
L1D LOAD      ACCESS:   33324711  HIT:   25310486  MISS:    8014225  HIT %:    75.9511  MISS %:    24.0489   MPKI: 40.0711
L1D RFO       ACCESS:   13229984  HIT:   12836126  MISS:     393858  HIT %:     97.023  MISS %:    2.97701   MPKI: 1.96929
L1D PREFETCH  ACCESS:   14473762  HIT:   13984646  MISS:     489116  HIT %:    96.6207  MISS %:    3.37933   MPKI: 2.44558
L1D PREFETCH  REQUESTED:   41035635  ISSUED:   41004621  USEFUL:     448184  USELESS:      40920
L1D USEFUL LOAD PREFETCHES:     448184 PREFETCH ISSUED TO LOWER LEVEL:    2186328  ACCURACY: 20.4994
L1D TIMELY PREFETCHES:     448184 LATE PREFETCHES: 6939 DROPPED PREFETCHES: 37385
L1D PREFETCHES SAME FILL-ORIGIN LEVEL: 496544 DIFFERENT FILL-ORIGIN LEVEL: 1689784
L1D AVERAGE MISS LATENCY: 22.3045 cycles
L1D RQ	ACCESS:   61972548	FORWARD:          0	MERGED:   27039253	TO_CACHE:   33626837
L1D WQ	ACCESS:   14439353	FORWARD:    1306489	MERGED:     189001	TO_CACHE:   14250352
L1D PQ	ACCESS:   24700687	FORWARD:          0	MERGED:    8396722	TO_CACHE:   16303934

L1D UNIQUE REGIONS ACCESSED: 0
L1D REGIONS CONFLICTS: 0
L1D Cross Page Prefetch Requests: 4304598
L1D Same Page Prefetch Requests: 23992034
L1D ROI Sum of L1D PQ occupancy: 232625571
L1D PREFETCHES PUSHED FROM L2C: 0
L1I TOTAL     ACCESS:   43224648  HIT:   42743761  MISS:     480887  HIT %:    98.8875  MISS %:    1.11253   MPKI: 2.40443
L1I LOAD      ACCESS:   43224648  HIT:   42743761  MISS:     480887  HIT %:    98.8875  MISS %:    1.11253   MPKI: 2.40443
L1I PREFETCH  REQUESTED:          0  ISSUED:          0  USEFUL:          0  USELESS:          0
L1I USEFUL LOAD PREFETCHES:          0 PREFETCH ISSUED TO LOWER LEVEL:          0  ACCURACY: -nan
L1I TIMELY PREFETCHES:          0 LATE PREFETCHES: 0 DROPPED PREFETCHES: 0
L1I PREFETCHES SAME FILL-ORIGIN LEVEL: 0 DIFFERENT FILL-ORIGIN LEVEL: 0
L1I AVERAGE MISS LATENCY: 15.5063 cycles
L1I RQ	ACCESS:   56209590	FORWARD:          0	MERGED:   12870355	TO_CACHE:   43339235

BTB TOTAL     ACCESS:   36570571  HIT:   34805262  MISS:    1765309  HIT %:    95.1729  MISS %:    4.82713   MPKI: 8.82654
BTB BRANCH_DIRECT_JUMP	ACCESS:    1537302  HIT:    1529898  MISS:       7404
BTB BRANCH_INDIRECT	ACCESS:     531807  HIT:     447578  MISS:      84229
BTB BRANCH_CONDITIONAL	ACCESS:   28493703  HIT:   28492938  MISS:        765
BTB BRANCH_DIRECT_CALL	ACCESS:    1917769  HIT:    1914266  MISS:       3503
BTB BRANCH_INDIRECT_CALL	ACCESS:    1086112  HIT:     936302  MISS:     149810
BTB BRANCH_RETURN	ACCESS:    3003878  HIT:    1484280  MISS:    1519598
BTB BRANCH_OTHER ACCESS:          0  HIT:          0  MISS:          0

L2C TOTAL     ACCESS:   11936323  HIT:   11290270  MISS:     646053  HIT %:    94.5875  MISS %:     5.4125   MPKI: 3.23027
L2C LOAD      ACCESS:    8488138  HIT:    8237450  MISS:     250688  HIT %:    97.0466  MISS %:    2.95339   MPKI: 1.25344
L2C DATA LOAD MPKI: 1.22317
L2C INSTRUCTION LOAD MPKI: 0.030275
L2C RFO       ACCESS:     393367  HIT:      55086  MISS:     338281  HIT %:    14.0037  MISS %:    85.9963   MPKI: 1.69141
L2C PREFETCH  ACCESS:    2175810  HIT:    2143942  MISS:      31868  HIT %:    98.5354  MISS %:    1.46465   MPKI: 0.15934
L2C DATA PREFETCH MPKI: 0.15934
L2C INSTRUCTION PREFETCH MPKI: 0
L2C WRITEBACK ACCESS:     558375  HIT:     551286  MISS:       7089  HIT %:    98.7304  MISS %:    1.26958   MPKI: 0.035445
L2C LOAD TRANSLATION ACCESS:     282734  HIT:     266285  MISS:      16449  HIT %:    94.1822  MISS %:    5.81784   MPKI: 0.082245
L2C TRANSLATION FROM L1D PREFETCHER ACCESS:      37899  HIT:      36221  MISS:       1678  HIT %:    95.5724  MISS %:    4.42756   MPKI: 0.00839
L2C PREFETCH  REQUESTED:          0  ISSUED:          0  USEFUL:       6314  USELESS:      27382
L2C USEFUL LOAD PREFETCHES:       6314 PREFETCH ISSUED TO LOWER LEVEL:      32146  ACCURACY: 19.6416
L2C TIMELY PREFETCHES:       6314 LATE PREFETCHES: 278 DROPPED PREFETCHES: 0
L2C PREFETCHES SAME FILL-ORIGIN LEVEL: 25808 DIFFERENT FILL-ORIGIN LEVEL: 0
L2C AVERAGE MISS LATENCY: 105.024 cycles
L2C RQ	ACCESS:    9202175	FORWARD:          0	MERGED:          0	TO_CACHE:    9202138
L2C WQ	ACCESS:     558375	FORWARD:        287	MERGED:          0	TO_CACHE:     558375
L2C PQ	ACCESS:    2186327	FORWARD:          0	MERGED:       1268	TO_CACHE:    2184809

L2C Instructions Evicting Data 5198
L2C Translations Evicting Data 17201
L2C Data Evicting Data 592664
L2C Instructions Evicting Instructions 511
L2C Translations Evicting Instructions 262
L2C Data Evicting Instructions 5189
L2C Instructions Evicting Translations 346
L2C Translations Evicting Translations 664
L2C Data Evicting Translations 16929
L2C Dense regions hint from L2: 0
PSCL5 TOTAL     ACCESS:     318105  HIT:     318105  MISS:          0  HIT %:        100  MISS %:          0   MPKI: 0
PSCL5 LOAD TRANSLATION ACCESS:     280265  HIT:     280265  MISS:          0  HIT %:        100  MISS %:          0   MPKI: 0
PSCL5 TRANSLATION FROM L1D PREFETCHER ACCESS:      37840  HIT:      37840  MISS:          0  HIT %:        100  MISS %:          0   MPKI: 0
PSCL5 PREFETCH  REQUESTED:          0  ISSUED:          0  USEFUL:          0  USELESS:          0
PSCL5 USEFUL LOAD PREFETCHES:          0 PREFETCH ISSUED TO LOWER LEVEL:          0  ACCURACY: -nan
PSCL5 TIMELY PREFETCHES:          0 LATE PREFETCHES: 0 DROPPED PREFETCHES: 0
PSCL5 PREFETCHES SAME FILL-ORIGIN LEVEL: 0 DIFFERENT FILL-ORIGIN LEVEL: 0

PSCL4 TOTAL     ACCESS:     318105  HIT:     318105  MISS:          0  HIT %:        100  MISS %:          0   MPKI: 0
PSCL4 LOAD TRANSLATION ACCESS:     280265  HIT:     280265  MISS:          0  HIT %:        100  MISS %:          0   MPKI: 0
PSCL4 TRANSLATION FROM L1D PREFETCHER ACCESS:      37840  HIT:      37840  MISS:          0  HIT %:        100  MISS %:          0   MPKI: 0
PSCL4 PREFETCH  REQUESTED:          0  ISSUED:          0  USEFUL:          0  USELESS:          0
PSCL4 USEFUL LOAD PREFETCHES:          0 PREFETCH ISSUED TO LOWER LEVEL:          0  ACCURACY: -nan
PSCL4 TIMELY PREFETCHES:          0 LATE PREFETCHES: 0 DROPPED PREFETCHES: 0
PSCL4 PREFETCHES SAME FILL-ORIGIN LEVEL: 0 DIFFERENT FILL-ORIGIN LEVEL: 0

PSCL3 TOTAL     ACCESS:     318105  HIT:     318105  MISS:          0  HIT %:        100  MISS %:          0   MPKI: 0
PSCL3 LOAD TRANSLATION ACCESS:     280265  HIT:     280265  MISS:          0  HIT %:        100  MISS %:          0   MPKI: 0
PSCL3 TRANSLATION FROM L1D PREFETCHER ACCESS:      37840  HIT:      37840  MISS:          0  HIT %:        100  MISS %:          0   MPKI: 0
PSCL3 PREFETCH  REQUESTED:          0  ISSUED:          0  USEFUL:          0  USELESS:          0
PSCL3 USEFUL LOAD PREFETCHES:          0 PREFETCH ISSUED TO LOWER LEVEL:          0  ACCURACY: -nan
PSCL3 TIMELY PREFETCHES:          0 LATE PREFETCHES: 0 DROPPED PREFETCHES: 0
PSCL3 PREFETCHES SAME FILL-ORIGIN LEVEL: 0 DIFFERENT FILL-ORIGIN LEVEL: 0

PSCL2 TOTAL     ACCESS:     318056  HIT:     315576  MISS:       2480  HIT %:    99.2203  MISS %:   0.779737   MPKI: 0.0124
PSCL2 LOAD TRANSLATION ACCESS:     280275  HIT:     277795  MISS:       2480  HIT %:    99.1152  MISS %:   0.884845   MPKI: 0.0124
PSCL2 TRANSLATION FROM L1D PREFETCHER ACCESS:      37781  HIT:      37781  MISS:          0  HIT %:        100  MISS %:          0   MPKI: 0
PSCL2 PREFETCH  REQUESTED:          0  ISSUED:          0  USEFUL:          0  USELESS:          0
PSCL2 USEFUL LOAD PREFETCHES:          0 PREFETCH ISSUED TO LOWER LEVEL:          0  ACCURACY: -nan
PSCL2 TIMELY PREFETCHES:          0 LATE PREFETCHES: 0 DROPPED PREFETCHES: 0
PSCL2 PREFETCHES SAME FILL-ORIGIN LEVEL: 0 DIFFERENT FILL-ORIGIN LEVEL: 0

LLC TOTAL     ACCESS:    1023865  HIT:     641957  MISS:     381908  HIT %:    62.6994  MISS %:    37.3006   MPKI: 1.90954
LLC LOAD      ACCESS:     250568  HIT:     205996  MISS:      44572  HIT %:    82.2116  MISS %:    17.7884   MPKI: 0.22286
LLC RFO       ACCESS:     338121  HIT:      19728  MISS:     318393  HIT %:     5.8346  MISS %:    94.1654   MPKI: 1.59197
LLC PREFETCH  ACCESS:      32146  HIT:      21540  MISS:      10606  HIT %:    67.0068  MISS %:    32.9932   MPKI: 0.05303
LLC WRITEBACK ACCESS:     384903  HIT:     379021  MISS:       5882  HIT %:    98.4718  MISS %:    1.52818   MPKI: 0.02941
LLC LOAD TRANSLATION ACCESS:      16449  HIT:      14053  MISS:       2396  HIT %:    85.4338  MISS %:    14.5662   MPKI: 0.01198
LLC TRANSLATION FROM L1D PREFETCHER ACCESS:       1678  HIT:       1619  MISS:         59  HIT %:    96.4839  MISS %:    3.51609   MPKI: 0.000295
LLC PREFETCH  REQUESTED:          0  ISSUED:          0  USEFUL:       1451  USELESS:       9069
LLC USEFUL LOAD PREFETCHES:       1451 PREFETCH ISSUED TO LOWER LEVEL:      10606  ACCURACY: 13.6809
LLC TIMELY PREFETCHES:       1451 LATE PREFETCHES: 0 DROPPED PREFETCHES: 0
LLC PREFETCHES SAME FILL-ORIGIN LEVEL: 0 DIFFERENT FILL-ORIGIN LEVEL: 0
LLC AVERAGE MISS LATENCY: 127.487 cycles
LLC RQ	ACCESS:     606818	FORWARD:          0	MERGED:          0	TO_CACHE:     606816
LLC WQ	ACCESS:     384903	FORWARD:          2	MERGED:          0	TO_CACHE:     384903
LLC PQ	ACCESS:      32146	FORWARD:          0	MERGED:          0	TO_CACHE:      32146

LLC Dense regions hint to LLC: 0

RAW hits: 631780
Loads Generated: 62604331
Loads sent to L1D: 61972548
Stores Generated: 14439353
Stores sent to L1D: 14439353
Major fault: 0 Minor fault: 5095
Allocated PAGES: 5095

DRAM Statistics
 CHANNEL 0
 RQ ROW_BUFFER_HIT:     206394  ROW_BUFFER_MISS:     169630
 DBUS_CONGESTED:        148
 WQ ROW_BUFFER_HIT:      50794  ROW_BUFFER_MISS:     299413  FULL:          0

 AVG_CONGESTED_CYCLE: 5
 All warmup complete: 2
Channel 0 Bank busy for read cycles: 0
Channel 0 Bank busy for write cycles: 0
Channel 0
Rank 0
0banks busy for read cycles: 437376522
0banks busy for write cycles: 62952
1banks busy for read cycles: 9876268
1banks busy for write cycles: 7778170
2banks busy for read cycles: 1701814
2banks busy for write cycles: 2097893
3banks busy for read cycles: 755123
3banks busy for write cycles: 606343
4banks busy for read cycles: 1009298
4banks busy for write cycles: 414655
5banks busy for read cycles: 485537
5banks busy for write cycles: 402640
6banks busy for read cycles: 479028
6banks busy for write cycles: 453250
7banks busy for read cycles: 506748
7banks busy for write cycles: 784980
8banks busy for read cycles: 929422
8banks busy for write cycles: 3171025

CPU 0 Branch Prediction Accuracy: 99.7196% MPKI: 0.6977 Average ROB Occupancy at Mispredict: 83.3297
Branch types
NOT_BRANCH: 142153356 71.0767%
BRANCH_DIRECT_JUMP: 1537302 0.768651%
BRANCH_INDIRECT: 531807 0.265904%
BRANCH_CONDITIONAL: 49769441 24.8847%
BRANCH_DIRECT_CALL: 1917769 0.958885%
BRANCH_INDIRECT_CALL: 1086112 0.543056%
BRANCH_RETURN: 3003878 1.50194%
BRANCH_OTHER: 0 0%

DRAM PAGES: 1048576
Allocated PAGES: 5095
