 (TOTAL 67349)
 
*** ChampSim Multicore Out-of-Order Simulator ***

Warmup Instructions: 50000000
Simulation Instructions: 200000000
Number of CPUs: 1
LLC sets: 2048
LLC ways: 16
Off-chip DRAM Size: 4096 MB Channels: 1 Width: 64-bit Data Rate: 6400 MT/s
argv[0]: ./ChampSim/Berti/bin/tagescl8kb-no-vberti-no-no-no-no-no-lru-lru-lru-srrip-drrip-lru-lru-lru-1core-no
argv[1]: -warmup_instructions
argv[2]: 50000000
argv[3]: -simulation_instructions
argv[4]: 200000000
argv[5]: -traces
argv[6]: traces/spec2k17_ten/605.mcf_s-1554B.champsimtrace.xz
CPU 0 runs traces/spec2k17_ten/605.mcf_s-1554B.champsimtrace.xz
.xz
CPU 0 Tage branch predictor
BTB has LRU replacement policy
ITLB has LRU replacement policy
DTLB has LRU replacement policy
STLB has LRU replacement policy
L1I has LRU replacement policy
History Sets: 8
History Ways: 16
BERTI Size: 16
BERTI Stride Size: 16
L1D has LRU replacement policy
Initialize SRRIP state for L2C
Initialize DRRIP state for LLC
Heartbeat CPU 0 instructions: 10000001 cycles: 3463981 heartbeat IPC: 2.88685 cumulative IPC: 2.88685 (Simulation time: 0 hr 4 min 55 sec) 
Heartbeat CPU 0 instructions: 20000000 cycles: 6950626 heartbeat IPC: 2.86809 cumulative IPC: 2.87744 (Simulation time: 0 hr 14 min 20 sec) 
Heartbeat CPU 0 instructions: 30000002 cycles: 10446582 heartbeat IPC: 2.86045 cumulative IPC: 2.87175 (Simulation time: 0 hr 24 min 24 sec) 
Heartbeat CPU 0 instructions: 40000001 cycles: 13929761 heartbeat IPC: 2.87094 cumulative IPC: 2.87155 (Simulation time: 0 hr 32 min 48 sec) 
Heartbeat CPU 0 instructions: 50000001 cycles: 17415959 heartbeat IPC: 2.86845 cumulative IPC: 2.87093 (Simulation time: 0 hr 41 min 11 sec) 

Warmup complete CPU 0 instructions: 50000001 cycles: 17415959 (Simulation time: 0 hr 41 min 11 sec) 

Heartbeat CPU 0 instructions: 60000001 cycles: 33183044 heartbeat IPC: 0.634233 cumulative IPC: 0.634233 (Simulation time: 0 hr 58 min 45 sec) 
Heartbeat CPU 0 instructions: 70000002 cycles: 49291077 heartbeat IPC: 0.620808 cumulative IPC: 0.627449 (Simulation time: 1 hr 14 min 26 sec) 
Heartbeat CPU 0 instructions: 80000000 cycles: 65726850 heartbeat IPC: 0.608429 cumulative IPC: 0.620978 (Simulation time: 1 hr 27 min 12 sec) 
Heartbeat CPU 0 instructions: 90000003 cycles: 81821288 heartbeat IPC: 0.621333 cumulative IPC: 0.621067 (Simulation time: 1 hr 39 min 44 sec) 
Heartbeat CPU 0 instructions: 100000001 cycles: 97797350 heartbeat IPC: 0.625936 cumulative IPC: 0.622035 (Simulation time: 1 hr 49 min 34 sec) 
Heartbeat CPU 0 instructions: 110000000 cycles: 113818033 heartbeat IPC: 0.624193 cumulative IPC: 0.622393 (Simulation time: 1 hr 57 min 50 sec) 
Heartbeat CPU 0 instructions: 120000000 cycles: 129121102 heartbeat IPC: 0.653464 cumulative IPC: 0.62665 (Simulation time: 2 hr 11 min 10 sec) 
Heartbeat CPU 0 instructions: 130000000 cycles: 144980388 heartbeat IPC: 0.630545 cumulative IPC: 0.627134 (Simulation time: 2 hr 22 min 6 sec) 
Heartbeat CPU 0 instructions: 140000000 cycles: 160912732 heartbeat IPC: 0.627654 cumulative IPC: 0.627192 (Simulation time: 2 hr 36 min 21 sec) 
Heartbeat CPU 0 instructions: 150000001 cycles: 176687255 heartbeat IPC: 0.633934 cumulative IPC: 0.62786 (Simulation time: 2 hr 50 min 16 sec) 
Heartbeat CPU 0 instructions: 160000000 cycles: 191626159 heartbeat IPC: 0.669393 cumulative IPC: 0.631421 (Simulation time: 3 hr 0 min 8 sec) 
Heartbeat CPU 0 instructions: 170000003 cycles: 206725324 heartbeat IPC: 0.662288 cumulative IPC: 0.633883 (Simulation time: 3 hr 12 min 3 sec) 
Heartbeat CPU 0 instructions: 180000003 cycles: 221952554 heartbeat IPC: 0.656718 cumulative IPC: 0.635583 (Simulation time: 3 hr 21 min 24 sec) 
Heartbeat CPU 0 instructions: 190000001 cycles: 236962571 heartbeat IPC: 0.666222 cumulative IPC: 0.637678 (Simulation time: 3 hr 28 min 3 sec) 
Heartbeat CPU 0 instructions: 200000002 cycles: 251908528 heartbeat IPC: 0.669077 cumulative IPC: 0.639679 (Simulation time: 3 hr 33 min 23 sec) 
Heartbeat CPU 0 instructions: 210000001 cycles: 267383913 heartbeat IPC: 0.646187 cumulative IPC: 0.640082 (Simulation time: 3 hr 37 min 56 sec) 
Heartbeat CPU 0 instructions: 220000000 cycles: 283041595 heartbeat IPC: 0.638664 cumulative IPC: 0.639998 (Simulation time: 3 hr 41 min 58 sec) 
Heartbeat CPU 0 instructions: 230000002 cycles: 298107420 heartbeat IPC: 0.663754 cumulative IPC: 0.641273 (Simulation time: 3 hr 45 min 1 sec) 
Heartbeat CPU 0 instructions: 240000001 cycles: 313749020 heartbeat IPC: 0.639321 cumulative IPC: 0.64117 (Simulation time: 3 hr 47 min 5 sec) 
Heartbeat CPU 0 instructions: 250000001 cycles: 329474872 heartbeat IPC: 0.635896 cumulative IPC: 0.640905 (Simulation time: 3 hr 48 min 45 sec) 
Finished CPU 0 instructions: 200000000 cycles: 312058913 cumulative IPC: 0.640905 (Simulation time: 3 hr 48 min 45 sec) 

ChampSim completed all CPUs

Region of Interest Statistics

CPU 0 cumulative IPC: 0.640905 instructions: 200000000 cycles: 312058913
ITLB TOTAL     ACCESS:   39650125  HIT:   39650125  MISS:          0  HIT %:        100  MISS %:          0   MPKI: 0
ITLB LOAD TRANSLATION ACCESS:   39650125  HIT:   39650125  MISS:          0  HIT %:        100  MISS %:          0   MPKI: 0
ITLB PREFETCH  REQUESTED:          0  ISSUED:          0  USEFUL:          0  USELESS:          0
ITLB USEFUL LOAD PREFETCHES:          0 PREFETCH ISSUED TO LOWER LEVEL:          0  ACCURACY: -nan
ITLB TIMELY PREFETCHES:          0 LATE PREFETCHES: 0 DROPPED PREFETCHES: 0
ITLB PREFETCHES SAME FILL-ORIGIN LEVEL: 0 DIFFERENT FILL-ORIGIN LEVEL: 0
ITLB AVERAGE MISS LATENCY: -nan cycles
ITLB RQ	ACCESS:   48387792	FORWARD:          0	MERGED:    8737666	TO_CACHE:   39650126

DTLB TOTAL     ACCESS:   61884231  HIT:   61083728  MISS:     800503  HIT %:    98.7065  MISS %:    1.29355   MPKI: 4.00251
DTLB LOAD TRANSLATION ACCESS:   61884231  HIT:   61083728  MISS:     800503  HIT %:    98.7065  MISS %:    1.29355   MPKI: 4.00251
DTLB PREFETCH  REQUESTED:          0  ISSUED:          0  USEFUL:          0  USELESS:          0
DTLB USEFUL LOAD PREFETCHES:          0 PREFETCH ISSUED TO LOWER LEVEL:          0  ACCURACY: -nan
DTLB TIMELY PREFETCHES:          0 LATE PREFETCHES: 0 DROPPED PREFETCHES: 0
DTLB PREFETCHES SAME FILL-ORIGIN LEVEL: 0 DIFFERENT FILL-ORIGIN LEVEL: 0
DTLB AVERAGE MISS LATENCY: 10.5987 cycles
DTLB RQ	ACCESS:   76819109	FORWARD:          0	MERGED:   14918983	TO_CACHE:   61900126

STLB TOTAL     ACCESS:   36426641  HIT:   36414351  MISS:      12290  HIT %:    99.9663  MISS %:   0.033739   MPKI: 0.06145
STLB LOAD TRANSLATION ACCESS:     800503  HIT:     788610  MISS:      11893  HIT %:    98.5143  MISS %:    1.48569   MPKI: 0.059465
STLB TRANSLATION FROM L1D PREFETCHER ACCESS:   35626138  HIT:   35625741  MISS:        397  HIT %:    99.9989  MISS %: 0.00111435   MPKI: 0.001985
STLB PREFETCH  REQUESTED:          0  ISSUED:          0  USEFUL:        397  USELESS:          0
STLB USEFUL LOAD PREFETCHES:        397 PREFETCH ISSUED TO LOWER LEVEL:          0  ACCURACY: inf
STLB TIMELY PREFETCHES:        397 LATE PREFETCHES: 167 DROPPED PREFETCHES: 65950
STLB PREFETCHES SAME FILL-ORIGIN LEVEL: 0 DIFFERENT FILL-ORIGIN LEVEL: 0
STLB AVERAGE MISS LATENCY: 165.8 cycles
STLB RQ	ACCESS:  173455893	FORWARD:          0	MERGED:  136959786	TO_CACHE:   36496107

STLB Hit, L1D data hit: 0
STLB Hit, L2C data hit: 0
STLB Hit, LLC data hit: 0
STLB Hit, LLC data miss: 0
STLB STLB hints to L2: 0
L1D TOTAL     ACCESS:  186865032  HIT:  152929325  MISS:   33935707  HIT %:    81.8395  MISS %:    18.1605   MPKI: 169.679
L1D LOAD      ACCESS:   64752268  HIT:   61079617  MISS:    3672651  HIT %:    94.3282  MISS %:    5.67185   MPKI: 18.3633
L1D RFO       ACCESS:   10262631  HIT:    9861615  MISS:     401016  HIT %:    96.0925  MISS %:    3.90754   MPKI: 2.00508
L1D PREFETCH  ACCESS:  111850133  HIT:   81988093  MISS:   29862040  HIT %:    73.3017  MISS %:    26.6983   MPKI: 149.31
L1D PREFETCH  REQUESTED:  537284073  ISSUED:  363879486  USEFUL:   27086015  USELESS:    2776048
L1D USEFUL LOAD PREFETCHES:   27086015 PREFETCH ISSUED TO LOWER LEVEL:   83313780  ACCURACY: 32.5108
L1D TIMELY PREFETCHES:   27086015 LATE PREFETCHES: 1000575 DROPPED PREFETCHES: 188785
L1D PREFETCHES SAME FILL-ORIGIN LEVEL: 31118300 DIFFERENT FILL-ORIGIN LEVEL: 52195480
L1D AVERAGE MISS LATENCY: 57.5043 cycles
L1D RQ	ACCESS:   83201269	FORWARD:          0	MERGED:   18205576	TO_CACHE:   64872978
L1D WQ	ACCESS:   13518702	FORWARD:     122717	MERGED:    1572571	TO_CACHE:   11946131
L1D PQ	ACCESS:  191224096	FORWARD:          0	MERGED:   18568704	TO_CACHE:  172655390

L1D UNIQUE REGIONS ACCESSED: 0
L1D REGIONS CONFLICTS: 0
L1D Cross Page Prefetch Requests: 61537289
L1D Same Page Prefetch Requests: 153556999
L1D ROI Sum of L1D PQ occupancy: 2701012304
L1D PREFETCHES PUSHED FROM L2C: 0
L1I TOTAL     ACCESS:   48387790  HIT:   48387790  MISS:          0  HIT %:        100  MISS %:          0   MPKI: 0
L1I LOAD      ACCESS:   48387790  HIT:   48387790  MISS:          0  HIT %:        100  MISS %:          0   MPKI: 0
L1I PREFETCH  REQUESTED:          0  ISSUED:          0  USEFUL:          0  USELESS:          0
L1I USEFUL LOAD PREFETCHES:          0 PREFETCH ISSUED TO LOWER LEVEL:          0  ACCURACY: -nan
L1I TIMELY PREFETCHES:          0 LATE PREFETCHES: 0 DROPPED PREFETCHES: 0
L1I PREFETCHES SAME FILL-ORIGIN LEVEL: 0 DIFFERENT FILL-ORIGIN LEVEL: 0
L1I AVERAGE MISS LATENCY: -nan cycles
L1I RQ	ACCESS:   79623890	FORWARD:          0	MERGED:   31236098	TO_CACHE:   48387792

BTB TOTAL     ACCESS:   35943477  HIT:   35943445  MISS:         32  HIT %:    99.9999  MISS %: 8.90287e-05   MPKI: 0.00016
BTB BRANCH_DIRECT_JUMP	ACCESS:    8413979  HIT:    8413973  MISS:          6
BTB BRANCH_INDIRECT	ACCESS:          0  HIT:          0  MISS:          0
BTB BRANCH_CONDITIONAL	ACCESS:   27526342  HIT:   27526320  MISS:         22
BTB BRANCH_DIRECT_CALL	ACCESS:       1578  HIT:       1576  MISS:          2
BTB BRANCH_INDIRECT_CALL	ACCESS:          0  HIT:          0  MISS:          0
BTB BRANCH_RETURN	ACCESS:       1578  HIT:       1576  MISS:          2
BTB BRANCH_OTHER ACCESS:          0  HIT:          0  MISS:          0

L2C TOTAL     ACCESS:   73799417  HIT:   32807158  MISS:   40992259  HIT %:    44.4545  MISS %:    55.5455   MPKI: 204.961
L2C LOAD      ACCESS:    2672074  HIT:    2246198  MISS:     425876  HIT %:     84.062  MISS %:     15.938   MPKI: 2.12938
L2C DATA LOAD MPKI: 2.12938
L2C INSTRUCTION LOAD MPKI: 0
L2C RFO       ACCESS:     399485  HIT:       3393  MISS:     396092  HIT %:   0.849344  MISS %:    99.1507   MPKI: 1.98046
L2C PREFETCH  ACCESS:   70101399  HIT:   29940478  MISS:   40160921  HIT %:    42.7102  MISS %:    57.2898   MPKI: 200.805
L2C DATA PREFETCH MPKI: 200.805
L2C INSTRUCTION PREFETCH MPKI: 0
L2C WRITEBACK ACCESS:     547699  HIT:     543820  MISS:       3879  HIT %:    99.2918  MISS %:   0.708236   MPKI: 0.019395
L2C LOAD TRANSLATION ACCESS:      11896  HIT:      10194  MISS:       1702  HIT %:    85.6927  MISS %:    14.3073   MPKI: 0.00851
L2C TRANSLATION FROM L1D PREFETCHER ACCESS:      66864  HIT:      63075  MISS:       3789  HIT %:    94.3333  MISS %:    5.66673   MPKI: 0.018945
L2C PREFETCH  REQUESTED:          0  ISSUED:          0  USEFUL:    2249177  USELESS:   37914713
L2C USEFUL LOAD PREFETCHES:    2249177 PREFETCH ISSUED TO LOWER LEVEL:   40418159  ACCURACY: 5.56477
L2C TIMELY PREFETCHES:    2249177 LATE PREFETCHES: 257228 DROPPED PREFETCHES: 0
L2C PREFETCHES SAME FILL-ORIGIN LEVEL: 25188295 DIFFERENT FILL-ORIGIN LEVEL: 0
L2C AVERAGE MISS LATENCY: 99.338 cycles
L2C RQ	ACCESS:    3150321	FORWARD:          0	MERGED:          0	TO_CACHE:    3150319
L2C WQ	ACCESS:     547699	FORWARD:          2	MERGED:          0	TO_CACHE:     547699
L2C PQ	ACCESS:   79855447	FORWARD:          0	MERGED:     198134	TO_CACHE:   79657313

L2C Instructions Evicting Data 0
L2C Translations Evicting Data 5490
L2C Data Evicting Data 40977397
L2C Instructions Evicting Instructions 0
L2C Translations Evicting Instructions 0
L2C Data Evicting Instructions 0
L2C Instructions Evicting Translations 0
L2C Translations Evicting Translations 1
L2C Data Evicting Translations 5492
L2C Dense regions hint from L2: 0
PSCL5 TOTAL     ACCESS:      78400  HIT:      78400  MISS:          0  HIT %:        100  MISS %:          0   MPKI: 0
PSCL5 LOAD TRANSLATION ACCESS:      11886  HIT:      11886  MISS:          0  HIT %:        100  MISS %:          0   MPKI: 0
PSCL5 TRANSLATION FROM L1D PREFETCHER ACCESS:      66514  HIT:      66514  MISS:          0  HIT %:        100  MISS %:          0   MPKI: 0
PSCL5 PREFETCH  REQUESTED:          0  ISSUED:          0  USEFUL:          0  USELESS:          0
PSCL5 USEFUL LOAD PREFETCHES:          0 PREFETCH ISSUED TO LOWER LEVEL:          0  ACCURACY: -nan
PSCL5 TIMELY PREFETCHES:          0 LATE PREFETCHES: 0 DROPPED PREFETCHES: 0
PSCL5 PREFETCHES SAME FILL-ORIGIN LEVEL: 0 DIFFERENT FILL-ORIGIN LEVEL: 0

PSCL4 TOTAL     ACCESS:      78400  HIT:      78400  MISS:          0  HIT %:        100  MISS %:          0   MPKI: 0
PSCL4 LOAD TRANSLATION ACCESS:      11886  HIT:      11886  MISS:          0  HIT %:        100  MISS %:          0   MPKI: 0
PSCL4 TRANSLATION FROM L1D PREFETCHER ACCESS:      66514  HIT:      66514  MISS:          0  HIT %:        100  MISS %:          0   MPKI: 0
PSCL4 PREFETCH  REQUESTED:          0  ISSUED:          0  USEFUL:          0  USELESS:          0
PSCL4 USEFUL LOAD PREFETCHES:          0 PREFETCH ISSUED TO LOWER LEVEL:          0  ACCURACY: -nan
PSCL4 TIMELY PREFETCHES:          0 LATE PREFETCHES: 0 DROPPED PREFETCHES: 0
PSCL4 PREFETCHES SAME FILL-ORIGIN LEVEL: 0 DIFFERENT FILL-ORIGIN LEVEL: 0

PSCL3 TOTAL     ACCESS:      78400  HIT:      78399  MISS:          1  HIT %:    99.9987  MISS %: 0.00127551   MPKI: 5e-06
PSCL3 LOAD TRANSLATION ACCESS:      11886  HIT:      11885  MISS:          1  HIT %:    99.9916  MISS %: 0.00841326   MPKI: 5e-06
PSCL3 TRANSLATION FROM L1D PREFETCHER ACCESS:      66514  HIT:      66514  MISS:          0  HIT %:        100  MISS %:          0   MPKI: 0
PSCL3 PREFETCH  REQUESTED:          0  ISSUED:          0  USEFUL:          0  USELESS:          0
PSCL3 USEFUL LOAD PREFETCHES:          0 PREFETCH ISSUED TO LOWER LEVEL:          0  ACCURACY: -nan
PSCL3 TIMELY PREFETCHES:          0 LATE PREFETCHES: 0 DROPPED PREFETCHES: 0
PSCL3 PREFETCHES SAME FILL-ORIGIN LEVEL: 0 DIFFERENT FILL-ORIGIN LEVEL: 0

PSCL2 TOTAL     ACCESS:      77958  HIT:      77919  MISS:         39  HIT %:      99.95  MISS %:  0.0500269   MPKI: 0.000195
PSCL2 LOAD TRANSLATION ACCESS:      11891  HIT:      11852  MISS:         39  HIT %:     99.672  MISS %:   0.327979   MPKI: 0.000195
PSCL2 TRANSLATION FROM L1D PREFETCHER ACCESS:      66067  HIT:      66067  MISS:          0  HIT %:        100  MISS %:          0   MPKI: 0
PSCL2 PREFETCH  REQUESTED:          0  ISSUED:          0  USEFUL:          0  USELESS:          0
PSCL2 USEFUL LOAD PREFETCHES:          0 PREFETCH ISSUED TO LOWER LEVEL:          0  ACCURACY: -nan
PSCL2 TIMELY PREFETCHES:          0 LATE PREFETCHES: 0 DROPPED PREFETCHES: 0
PSCL2 PREFETCHES SAME FILL-ORIGIN LEVEL: 0 DIFFERENT FILL-ORIGIN LEVEL: 0

LLC TOTAL     ACCESS:   41535526  HIT:   23502544  MISS:   18032982  HIT %:    56.5842  MISS %:    43.4158   MPKI: 90.1649
LLC LOAD      ACCESS:     168976  HIT:     102518  MISS:      66458  HIT %:    60.6702  MISS %:    39.3298   MPKI: 0.33229
LLC RFO       ACCESS:     395764  HIT:       2402  MISS:     393362  HIT %:   0.606927  MISS %:    99.3931   MPKI: 1.96681
LLC PREFETCH  ACCESS:   40418152  HIT:   23364232  MISS:   17053920  HIT %:    57.8063  MISS %:    42.1937   MPKI: 85.2696
LLC WRITEBACK ACCESS:     547143  HIT:      32064  MISS:     515079  HIT %:    5.86026  MISS %:    94.1397   MPKI: 2.57539
LLC LOAD TRANSLATION ACCESS:       1702  HIT:         18  MISS:       1684  HIT %:    1.05758  MISS %:    98.9424   MPKI: 0.00842
LLC TRANSLATION FROM L1D PREFETCHER ACCESS:       3789  HIT:       1310  MISS:       2479  HIT %:    34.5738  MISS %:    65.4262   MPKI: 0.012395
LLC PREFETCH  REQUESTED:          0  ISSUED:          0  USEFUL:       9266  USELESS:   17043964
LLC USEFUL LOAD PREFETCHES:       9266 PREFETCH ISSUED TO LOWER LEVEL:   17053924  ACCURACY: 0.0543335
LLC TIMELY PREFETCHES:       9266 LATE PREFETCHES: 0 DROPPED PREFETCHES: 0
LLC PREFETCHES SAME FILL-ORIGIN LEVEL: 0 DIFFERENT FILL-ORIGIN LEVEL: 0
LLC AVERAGE MISS LATENCY: 159.785 cycles
LLC RQ	ACCESS:     570231	FORWARD:          0	MERGED:          0	TO_CACHE:     570231
LLC WQ	ACCESS:     547143	FORWARD:          0	MERGED:          0	TO_CACHE:     547143
LLC PQ	ACCESS:   40418159	FORWARD:          0	MERGED:          0	TO_CACHE:   40418159

LLC Dense regions hint to LLC: 0

RAW hits: 8331692
Loads Generated: 91532965
Loads sent to L1D: 83201269
Stores Generated: 13518700
Stores sent to L1D: 13518702
Major fault: 0 Minor fault: 17320
Allocated PAGES: 17320

DRAM Statistics
 CHANNEL 0
 RQ ROW_BUFFER_HIT:   13163644  ROW_BUFFER_MISS:    4353652
 DBUS_CONGESTED:      13487
 WQ ROW_BUFFER_HIT:      82337  ROW_BUFFER_MISS:     459981  FULL:          0

 AVG_CONGESTED_CYCLE: 5
 All warmup complete: 2
Channel 0 Bank busy for read cycles: 0
Channel 0 Bank busy for write cycles: 0
Channel 0
Rank 0
0banks busy for read cycles: 562592
0banks busy for write cycles: 232
1banks busy for read cycles: 16503391
1banks busy for write cycles: 409059
2banks busy for read cycles: 31297646
2banks busy for write cycles: 334851
3banks busy for read cycles: 46359792
3banks busy for write cycles: 332320
4banks busy for read cycles: 54363891
4banks busy for write cycles: 306980
5banks busy for read cycles: 51705331
5banks busy for write cycles: 290821
6banks busy for read cycles: 41120409
6banks busy for write cycles: 352755
7banks busy for read cycles: 29554953
7banks busy for write cycles: 1511679
8banks busy for read cycles: 21489569
8banks busy for write cycles: 15562643

CPU 0 Branch Prediction Accuracy: 98.6298% MPKI: 1.9349 Average ROB Occupancy at Mispredict: 57.9472
Branch types
NOT_BRANCH: 163339839 81.6699%
BRANCH_DIRECT_JUMP: 8413979 4.20699%
BRANCH_INDIRECT: 0 0%
BRANCH_CONDITIONAL: 28243019 14.1215%
BRANCH_DIRECT_CALL: 1578 0.000789%
BRANCH_INDIRECT_CALL: 0 0%
BRANCH_RETURN: 1578 0.000789%
BRANCH_OTHER: 0 0%

DRAM PAGES: 1048576
Allocated PAGES: 17320
