 (TOTAL 67349)
 
*** ChampSim Multicore Out-of-Order Simulator ***

Warmup Instructions: 50000000
Simulation Instructions: 200000000
Number of CPUs: 1
LLC sets: 2048
LLC ways: 16
Off-chip DRAM Size: 4096 MB Channels: 1 Width: 64-bit Data Rate: 6400 MT/s
argv[0]: ./ChampSim/Berti/bin/tagescl8kb-no-vberti-no-no-no-no-no-lru-lru-lru-srrip-drrip-lru-lru-lru-1core-no
argv[1]: -warmup_instructions
argv[2]: 50000000
argv[3]: -simulation_instructions
argv[4]: 200000000
argv[5]: -traces
argv[6]: traces/spec2k17_ten/605.mcf_s-1644B.champsimtrace.xz
CPU 0 runs traces/spec2k17_ten/605.mcf_s-1644B.champsimtrace.xz
.xz
CPU 0 Tage branch predictor
BTB has LRU replacement policy
ITLB has LRU replacement policy
DTLB has LRU replacement policy
STLB has LRU replacement policy
L1I has LRU replacement policy
History Sets: 8
History Ways: 16
BERTI Size: 16
BERTI Stride Size: 16
L1D has LRU replacement policy
Initialize SRRIP state for L2C
Initialize DRRIP state for LLC
Heartbeat CPU 0 instructions: 10000003 cycles: 4934139 heartbeat IPC: 2.0267 cumulative IPC: 2.0267 (Simulation time: 0 hr 19 min 8 sec) 
Heartbeat CPU 0 instructions: 20000001 cycles: 9859005 heartbeat IPC: 2.03051 cumulative IPC: 2.0286 (Simulation time: 0 hr 35 min 48 sec) 
Heartbeat CPU 0 instructions: 30000001 cycles: 14781994 heartbeat IPC: 2.03129 cumulative IPC: 2.0295 (Simulation time: 0 hr 49 min 45 sec) 
Heartbeat CPU 0 instructions: 40000002 cycles: 19699014 heartbeat IPC: 2.03375 cumulative IPC: 2.03056 (Simulation time: 1 hr 10 min 15 sec) 
Heartbeat CPU 0 instructions: 50000000 cycles: 24609224 heartbeat IPC: 2.03657 cumulative IPC: 2.03176 (Simulation time: 1 hr 25 min 26 sec) 

Warmup complete CPU 0 instructions: 50000004 cycles: 24609225 (Simulation time: 1 hr 25 min 26 sec) 

Heartbeat CPU 0 instructions: 60000001 cycles: 87656275 heartbeat IPC: 0.158612 cumulative IPC: 0.158612 (Simulation time: 1 hr 46 min 57 sec) 
Heartbeat CPU 0 instructions: 70000000 cycles: 150930060 heartbeat IPC: 0.158043 cumulative IPC: 0.158327 (Simulation time: 2 hr 8 min 34 sec) 
Heartbeat CPU 0 instructions: 80000000 cycles: 214968607 heartbeat IPC: 0.156156 cumulative IPC: 0.157597 (Simulation time: 2 hr 33 min 10 sec) 
Heartbeat CPU 0 instructions: 90000000 cycles: 278720778 heartbeat IPC: 0.156857 cumulative IPC: 0.157411 (Simulation time: 2 hr 57 min 13 sec) 
Heartbeat CPU 0 instructions: 100000001 cycles: 343917007 heartbeat IPC: 0.153383 cumulative IPC: 0.156589 (Simulation time: 3 hr 15 min 58 sec) 
Heartbeat CPU 0 instructions: 110000000 cycles: 409227280 heartbeat IPC: 0.153115 cumulative IPC: 0.155999 (Simulation time: 3 hr 27 min 48 sec) 
Heartbeat CPU 0 instructions: 120000000 cycles: 474597513 heartbeat IPC: 0.152975 cumulative IPC: 0.15556 (Simulation time: 3 hr 37 min 8 sec) 
Heartbeat CPU 0 instructions: 130000000 cycles: 539437339 heartbeat IPC: 0.154226 cumulative IPC: 0.155392 (Simulation time: 3 hr 43 min 44 sec) 
Heartbeat CPU 0 instructions: 140000003 cycles: 602698485 heartbeat IPC: 0.158075 cumulative IPC: 0.155685 (Simulation time: 3 hr 47 min 30 sec) 
Heartbeat CPU 0 instructions: 150000002 cycles: 662447276 heartbeat IPC: 0.167367 cumulative IPC: 0.15678 (Simulation time: 3 hr 50 min 29 sec) 
Heartbeat CPU 0 instructions: 160000002 cycles: 720909079 heartbeat IPC: 0.171052 cumulative IPC: 0.157978 (Simulation time: 3 hr 52 min 31 sec) 
Heartbeat CPU 0 instructions: 170000002 cycles: 781861798 heartbeat IPC: 0.164062 cumulative IPC: 0.158468 (Simulation time: 3 hr 54 min 26 sec) 
Heartbeat CPU 0 instructions: 180000000 cycles: 842849081 heartbeat IPC: 0.163969 cumulative IPC: 0.158878 (Simulation time: 3 hr 56 min 19 sec) 
Heartbeat CPU 0 instructions: 190000000 cycles: 903480664 heartbeat IPC: 0.164931 cumulative IPC: 0.159295 (Simulation time: 3 hr 58 min 11 sec) 
Heartbeat CPU 0 instructions: 200000001 cycles: 965530427 heartbeat IPC: 0.161161 cumulative IPC: 0.159418 (Simulation time: 4 hr 0 min 5 sec) 
Heartbeat CPU 0 instructions: 210000000 cycles: 1027632172 heartbeat IPC: 0.161026 cumulative IPC: 0.159518 (Simulation time: 4 hr 2 min 0 sec) 
Heartbeat CPU 0 instructions: 220000000 cycles: 1089652944 heartbeat IPC: 0.161236 cumulative IPC: 0.159618 (Simulation time: 4 hr 3 min 53 sec) 
Heartbeat CPU 0 instructions: 230000001 cycles: 1151500615 heartbeat IPC: 0.161688 cumulative IPC: 0.159731 (Simulation time: 4 hr 5 min 47 sec) 
Heartbeat CPU 0 instructions: 240000002 cycles: 1213813994 heartbeat IPC: 0.160479 cumulative IPC: 0.159771 (Simulation time: 4 hr 7 min 40 sec) 
Heartbeat CPU 0 instructions: 250000001 cycles: 1276221571 heartbeat IPC: 0.160237 cumulative IPC: 0.159794 (Simulation time: 4 hr 9 min 33 sec) 
Finished CPU 0 instructions: 200000001 cycles: 1251612347 cumulative IPC: 0.159794 (Simulation time: 4 hr 9 min 33 sec) 

ChampSim completed all CPUs

Region of Interest Statistics

CPU 0 cumulative IPC: 0.159794 instructions: 200000001 cycles: 1251612347
ITLB TOTAL     ACCESS:   34917154  HIT:   34917154  MISS:          0  HIT %:        100  MISS %:          0   MPKI: 0
ITLB LOAD TRANSLATION ACCESS:   34917154  HIT:   34917154  MISS:          0  HIT %:        100  MISS %:          0   MPKI: 0
ITLB PREFETCH  REQUESTED:          0  ISSUED:          0  USEFUL:          0  USELESS:          0
ITLB USEFUL LOAD PREFETCHES:          0 PREFETCH ISSUED TO LOWER LEVEL:          0  ACCURACY: -nan
ITLB TIMELY PREFETCHES:          0 LATE PREFETCHES: 0 DROPPED PREFETCHES: 0
ITLB PREFETCHES SAME FILL-ORIGIN LEVEL: 0 DIFFERENT FILL-ORIGIN LEVEL: 0
ITLB AVERAGE MISS LATENCY: -nan cycles
ITLB RQ	ACCESS:   35023025	FORWARD:          0	MERGED:     105871	TO_CACHE:   34917154

DTLB TOTAL     ACCESS:   81900782  HIT:   76262433  MISS:    5638349  HIT %:    93.1156  MISS %:    6.88437   MPKI: 28.1917
DTLB LOAD TRANSLATION ACCESS:   81900782  HIT:   76262433  MISS:    5638349  HIT %:    93.1156  MISS %:    6.88437   MPKI: 28.1917
DTLB PREFETCH  REQUESTED:          0  ISSUED:          0  USEFUL:          0  USELESS:          0
DTLB USEFUL LOAD PREFETCHES:          0 PREFETCH ISSUED TO LOWER LEVEL:          0  ACCURACY: -nan
DTLB TIMELY PREFETCHES:          0 LATE PREFETCHES: 0 DROPPED PREFETCHES: 0
DTLB PREFETCHES SAME FILL-ORIGIN LEVEL: 0 DIFFERENT FILL-ORIGIN LEVEL: 0
DTLB AVERAGE MISS LATENCY: 936.983 cycles
DTLB RQ	ACCESS:  128700211	FORWARD:          0	MERGED:   15448649	TO_CACHE:  113251562

STLB TOTAL     ACCESS:   19050184  HIT:   14221494  MISS:    4828690  HIT %:    74.6528  MISS %:    25.3472   MPKI: 24.1434
STLB LOAD TRANSLATION ACCESS:    5638349  HIT:     833148  MISS:    4805201  HIT %:    14.7765  MISS %:    85.2235   MPKI: 24.026
STLB TRANSLATION FROM L1D PREFETCHER ACCESS:   13411835  HIT:   13388346  MISS:      23489  HIT %:    99.8249  MISS %:   0.175136   MPKI: 0.117445
STLB PREFETCH  REQUESTED:          0  ISSUED:          0  USEFUL:      21494  USELESS:       1995
STLB USEFUL LOAD PREFETCHES:      21494 PREFETCH ISSUED TO LOWER LEVEL:          0  ACCURACY: inf
STLB TIMELY PREFETCHES:      21494 LATE PREFETCHES: 74372 DROPPED PREFETCHES: 1207654
STLB PREFETCHES SAME FILL-ORIGIN LEVEL: 0 DIFFERENT FILL-ORIGIN LEVEL: 0
STLB AVERAGE MISS LATENCY: 1086.3 cycles
STLB RQ	ACCESS:   40983896	FORWARD:          0	MERGED:   19993278	TO_CACHE:   20990618

STLB Hit, L1D data hit: 0
STLB Hit, L2C data hit: 0
STLB Hit, LLC data hit: 0
STLB Hit, LLC data miss: 0
STLB STLB hints to L2: 0
L1D TOTAL     ACCESS:  122134016  HIT:  104177309  MISS:   17956707  HIT %:    85.2975  MISS %:    14.7025   MPKI: 89.7835
L1D LOAD      ACCESS:   58614574  HIT:   53838519  MISS:    4776055  HIT %:    91.8518  MISS %:    8.14824   MPKI: 23.8803
L1D RFO       ACCESS:   39360779  HIT:   30614161  MISS:    8746618  HIT %:    77.7783  MISS %:    22.2217   MPKI: 43.7331
L1D PREFETCH  ACCESS:   24158663  HIT:   19724629  MISS:    4434034  HIT %:    81.6462  MISS %:    18.3538   MPKI: 22.1702
L1D PREFETCH  REQUESTED:  137656124  ISSUED:   84534098  USEFUL:    4423057  USELESS:      10972
L1D USEFUL LOAD PREFETCHES:    4423057 PREFETCH ISSUED TO LOWER LEVEL:    7007826  ACCURACY: 63.116
L1D TIMELY PREFETCHES:    4423057 LATE PREFETCHES: 132681 DROPPED PREFETCHES: 4807920
L1D PREFETCHES SAME FILL-ORIGIN LEVEL: 4567321 DIFFERENT FILL-ORIGIN LEVEL: 2440505
L1D AVERAGE MISS LATENCY: 287.987 cycles
L1D RQ	ACCESS:   77839659	FORWARD:          0	MERGED:   17720854	TO_CACHE:   58731962
L1D WQ	ACCESS:   69973103	FORWARD:    1386909	MERGED:       4854	TO_CACHE:   69968249
L1D PQ	ACCESS:   49188557	FORWARD:          0	MERGED:   13842950	TO_CACHE:   35345541

L1D UNIQUE REGIONS ACCESSED: 0
L1D REGIONS CONFLICTS: 0
L1D Cross Page Prefetch Requests: 13543834
L1D Same Page Prefetch Requests: 59775371
L1D ROI Sum of L1D PQ occupancy: 11521741033
L1D PREFETCHES PUSHED FROM L2C: 0
L1I TOTAL     ACCESS:   35023025  HIT:   35023025  MISS:          0  HIT %:        100  MISS %:          0   MPKI: 0
L1I LOAD      ACCESS:   35023025  HIT:   35023025  MISS:          0  HIT %:        100  MISS %:          0   MPKI: 0
L1I PREFETCH  REQUESTED:          0  ISSUED:          0  USEFUL:          0  USELESS:          0
L1I USEFUL LOAD PREFETCHES:          0 PREFETCH ISSUED TO LOWER LEVEL:          0  ACCURACY: -nan
L1I TIMELY PREFETCHES:          0 LATE PREFETCHES: 0 DROPPED PREFETCHES: 0
L1I PREFETCHES SAME FILL-ORIGIN LEVEL: 0 DIFFERENT FILL-ORIGIN LEVEL: 0
L1I AVERAGE MISS LATENCY: -nan cycles
L1I RQ	ACCESS:   48374541	FORWARD:          0	MERGED:   13351516	TO_CACHE:   35023025

BTB TOTAL     ACCESS:   20480033  HIT:   20480028  MISS:          5  HIT %:        100  MISS %: 2.4414e-05   MPKI: 2.5e-05
BTB BRANCH_DIRECT_JUMP	ACCESS:    2986815  HIT:    2986814  MISS:          1
BTB BRANCH_INDIRECT	ACCESS:          0  HIT:          0  MISS:          0
BTB BRANCH_CONDITIONAL	ACCESS:    8746594  HIT:    8746592  MISS:          2
BTB BRANCH_DIRECT_CALL	ACCESS:    4373312  HIT:    4373311  MISS:          1
BTB BRANCH_INDIRECT_CALL	ACCESS:          0  HIT:          0  MISS:          0
BTB BRANCH_RETURN	ACCESS:    4373312  HIT:    4373311  MISS:          1
BTB BRANCH_OTHER ACCESS:          0  HIT:          0  MISS:          0

L2C TOTAL     ACCESS:   46528676  HIT:   23339435  MISS:   23189241  HIT %:    50.1614  MISS %:    49.8386   MPKI: 115.946
L2C LOAD      ACCESS:    4643339  HIT:    1455579  MISS:    3187760  HIT %:    31.3477  MISS %:    68.6523   MPKI: 15.9388
L2C DATA LOAD MPKI: 15.9388
L2C INSTRUCTION LOAD MPKI: 0
L2C RFO       ACCESS:    8746618  HIT:       2489  MISS:    8744129  HIT %:  0.0284567  MISS %:    99.9715   MPKI: 43.7206
L2C PREFETCH  ACCESS:    6601100  HIT:    1150851  MISS:    5450249  HIT %:    17.4342  MISS %:    82.5658   MPKI: 27.2512
L2C DATA PREFETCH MPKI: 27.2512
L2C INSTRUCTION PREFETCH MPKI: 0
L2C WRITEBACK ACCESS:   17945735  HIT:   16430810  MISS:    1514925  HIT %:    91.5583  MISS %:     8.4417   MPKI: 7.57462
L2C LOAD TRANSLATION ACCESS:    6874399  HIT:    2596882  MISS:    4277517  HIT %:    37.7761  MISS %:    62.2239   MPKI: 21.3876
L2C TRANSLATION FROM L1D PREFETCHER ACCESS:    1717485  HIT:    1702824  MISS:      14661  HIT %:    99.1464  MISS %:   0.853632   MPKI: 0.073305
L2C PREFETCH  REQUESTED:          0  ISSUED:          0  USEFUL:     275276  USELESS:    5189842
L2C USEFUL LOAD PREFETCHES:     275276 PREFETCH ISSUED TO LOWER LEVEL:    5480281  ACCURACY: 5.02303
L2C TIMELY PREFETCHES:     275276 LATE PREFETCHES: 30032 DROPPED PREFETCHES: 0
L2C PREFETCHES SAME FILL-ORIGIN LEVEL: 1820303 DIFFERENT FILL-ORIGIN LEVEL: 0
L2C AVERAGE MISS LATENCY: 286.547 cycles
L2C RQ	ACCESS:   21981880	FORWARD:          0	MERGED:          0	TO_CACHE:   21981845
L2C WQ	ACCESS:   17945735	FORWARD:         36	MERGED:          0	TO_CACHE:   17945735
L2C PQ	ACCESS:    6986417	FORWARD:          0	MERGED:       2134	TO_CACHE:    6984282

L2C Instructions Evicting Data 0
L2C Translations Evicting Data 3478787
L2C Data Evicting Data 14034968
L2C Instructions Evicting Instructions 0
L2C Translations Evicting Instructions 0
L2C Data Evicting Instructions 0
L2C Instructions Evicting Translations 0
L2C Translations Evicting Translations 813391
L2C Data Evicting Translations 3347170
L2C Dense regions hint from L2: 0
PSCL5 TOTAL     ACCESS:    6100110  HIT:    6100110  MISS:          0  HIT %:        100  MISS %:          0   MPKI: 0
PSCL5 LOAD TRANSLATION ACCESS:    4794595  HIT:    4794595  MISS:          0  HIT %:        100  MISS %:          0   MPKI: 0
PSCL5 TRANSLATION FROM L1D PREFETCHER ACCESS:    1305515  HIT:    1305515  MISS:          0  HIT %:        100  MISS %:          0   MPKI: 0
PSCL5 PREFETCH  REQUESTED:          0  ISSUED:          0  USEFUL:          0  USELESS:          0
PSCL5 USEFUL LOAD PREFETCHES:          0 PREFETCH ISSUED TO LOWER LEVEL:          0  ACCURACY: -nan
PSCL5 TIMELY PREFETCHES:          0 LATE PREFETCHES: 0 DROPPED PREFETCHES: 0
PSCL5 PREFETCHES SAME FILL-ORIGIN LEVEL: 0 DIFFERENT FILL-ORIGIN LEVEL: 0

PSCL4 TOTAL     ACCESS:    6100110  HIT:    6100110  MISS:          0  HIT %:        100  MISS %:          0   MPKI: 0
PSCL4 LOAD TRANSLATION ACCESS:    4794595  HIT:    4794595  MISS:          0  HIT %:        100  MISS %:          0   MPKI: 0
PSCL4 TRANSLATION FROM L1D PREFETCHER ACCESS:    1305515  HIT:    1305515  MISS:          0  HIT %:        100  MISS %:          0   MPKI: 0
PSCL4 PREFETCH  REQUESTED:          0  ISSUED:          0  USEFUL:          0  USELESS:          0
PSCL4 USEFUL LOAD PREFETCHES:          0 PREFETCH ISSUED TO LOWER LEVEL:          0  ACCURACY: -nan
PSCL4 TIMELY PREFETCHES:          0 LATE PREFETCHES: 0 DROPPED PREFETCHES: 0
PSCL4 PREFETCHES SAME FILL-ORIGIN LEVEL: 0 DIFFERENT FILL-ORIGIN LEVEL: 0

PSCL3 TOTAL     ACCESS:    6100110  HIT:    6100110  MISS:          0  HIT %:        100  MISS %:          0   MPKI: 0
PSCL3 LOAD TRANSLATION ACCESS:    4794595  HIT:    4794595  MISS:          0  HIT %:        100  MISS %:          0   MPKI: 0
PSCL3 TRANSLATION FROM L1D PREFETCHER ACCESS:    1305515  HIT:    1305515  MISS:          0  HIT %:        100  MISS %:          0   MPKI: 0
PSCL3 PREFETCH  REQUESTED:          0  ISSUED:          0  USEFUL:          0  USELESS:          0
PSCL3 USEFUL LOAD PREFETCHES:          0 PREFETCH ISSUED TO LOWER LEVEL:          0  ACCURACY: -nan
PSCL3 TIMELY PREFETCHES:          0 LATE PREFETCHES: 0 DROPPED PREFETCHES: 0
PSCL3 PREFETCHES SAME FILL-ORIGIN LEVEL: 0 DIFFERENT FILL-ORIGIN LEVEL: 0

PSCL2 TOTAL     ACCESS:    5691040  HIT:    3605250  MISS:    2085790  HIT %:    63.3496  MISS %:    36.6504   MPKI: 10.4289
PSCL2 LOAD TRANSLATION ACCESS:    4800430  HIT:    2714640  MISS:    2085790  HIT %:    56.5499  MISS %:    43.4501   MPKI: 10.4289
PSCL2 TRANSLATION FROM L1D PREFETCHER ACCESS:     890610  HIT:     890610  MISS:          0  HIT %:        100  MISS %:          0   MPKI: 0
PSCL2 PREFETCH  REQUESTED:          0  ISSUED:          0  USEFUL:          0  USELESS:          0
PSCL2 USEFUL LOAD PREFETCHES:          0 PREFETCH ISSUED TO LOWER LEVEL:          0  ACCURACY: -nan
PSCL2 TIMELY PREFETCHES:          0 LATE PREFETCHES: 0 DROPPED PREFETCHES: 0
PSCL2 PREFETCHES SAME FILL-ORIGIN LEVEL: 0 DIFFERENT FILL-ORIGIN LEVEL: 0

LLC TOTAL     ACCESS:   38425379  HIT:   19968656  MISS:   18456723  HIT %:    51.9674  MISS %:    48.0326   MPKI: 92.2836
LLC LOAD      ACCESS:    3157687  HIT:    1863607  MISS:    1294080  HIT %:    59.0181  MISS %:    40.9819   MPKI: 6.4704
LLC RFO       ACCESS:    8744129  HIT:      45507  MISS:    8698622  HIT %:   0.520429  MISS %:    99.4796   MPKI: 43.4931
LLC PREFETCH  ACCESS:    5480278  HIT:     359345  MISS:    5120933  HIT %:    6.55706  MISS %:    93.4429   MPKI: 25.6047
LLC WRITEBACK ACCESS:   16751107  HIT:   16472629  MISS:     278478  HIT %:    98.3376  MISS %:    1.66245   MPKI: 1.39239
LLC LOAD TRANSLATION ACCESS:    4277517  HIT:    1224260  MISS:    3053257  HIT %:    28.6208  MISS %:    71.3792   MPKI: 15.2663
LLC TRANSLATION FROM L1D PREFETCHER ACCESS:      14661  HIT:       3308  MISS:      11353  HIT %:    22.5633  MISS %:    77.4367   MPKI: 0.056765
LLC PREFETCH  REQUESTED:          0  ISSUED:          0  USEFUL:      56540  USELESS:    5075664
LLC USEFUL LOAD PREFETCHES:      56540 PREFETCH ISSUED TO LOWER LEVEL:    5120933  ACCURACY: 1.1041
LLC TIMELY PREFETCHES:      56540 LATE PREFETCHES: 0 DROPPED PREFETCHES: 0
LLC PREFETCHES SAME FILL-ORIGIN LEVEL: 0 DIFFERENT FILL-ORIGIN LEVEL: 0
LLC AVERAGE MISS LATENCY: 324.986 cycles
LLC RQ	ACCESS:   16194039	FORWARD:          0	MERGED:          0	TO_CACHE:   16193998
LLC WQ	ACCESS:   16751107	FORWARD:         44	MERGED:          0	TO_CACHE:   16751107
LLC PQ	ACCESS:    5480281	FORWARD:          0	MERGED:          0	TO_CACHE:    5480278

LLC Dense regions hint to LLC: 0

RAW hits: 5253401
Loads Generated: 83093059
Loads sent to L1D: 77839659
Stores Generated: 69973106
Stores sent to L1D: 69973103
Major fault: 0 Minor fault: 318411
Allocated PAGES: 318411

DRAM Statistics
 CHANNEL 0
 RQ ROW_BUFFER_HIT:    1309935  ROW_BUFFER_MISS:   16865465
 DBUS_CONGESTED:         90
 WQ ROW_BUFFER_HIT:    3043607  ROW_BUFFER_MISS:   11682153  FULL:          0

 AVG_CONGESTED_CYCLE: 4
 All warmup complete: 2
Channel 0 Bank busy for read cycles: 0
Channel 0 Bank busy for write cycles: 0
Channel 0
Rank 0
0banks busy for read cycles: 1789198
0banks busy for write cycles: 12
1banks busy for read cycles: 124943049
1banks busy for write cycles: 2374296
2banks busy for read cycles: 145653212
2banks busy for write cycles: 2379006
3banks busy for read cycles: 230496291
3banks busy for write cycles: 2457872
4banks busy for read cycles: 132657205
4banks busy for write cycles: 4575394
5banks busy for read cycles: 82136939
5banks busy for write cycles: 9334175
6banks busy for read cycles: 47741083
6banks busy for write cycles: 23146478
7banks busy for read cycles: 29271193
7banks busy for write cycles: 87280669
8banks busy for read cycles: 26306726
8banks busy for write cycles: 299069550

CPU 0 Branch Prediction Accuracy: 90.9409% MPKI: 5.94276 Average ROB Occupancy at Mispredict: 114.429
Branch types
NOT_BRANCH: 175146307 87.5732%
BRANCH_DIRECT_JUMP: 2986815 1.49341%
BRANCH_INDIRECT: 0 0%
BRANCH_CONDITIONAL: 13119937 6.55997%
BRANCH_DIRECT_CALL: 4373312 2.18666%
BRANCH_INDIRECT_CALL: 0 0%
BRANCH_RETURN: 4373312 2.18666%
BRANCH_OTHER: 0 0%

DRAM PAGES: 1048576
Allocated PAGES: 318411
