 (TOTAL 67349)
 
*** ChampSim Multicore Out-of-Order Simulator ***

Warmup Instructions: 50000000
Simulation Instructions: 200000000
Number of CPUs: 1
LLC sets: 2048
LLC ways: 16
Off-chip DRAM Size: 4096 MB Channels: 1 Width: 64-bit Data Rate: 6400 MT/s
argv[0]: ./ChampSim/Berti/bin/tagescl8kb-no-vberti-no-no-no-no-no-lru-lru-lru-srrip-drrip-lru-lru-lru-1core-no
argv[1]: -warmup_instructions
argv[2]: 50000000
argv[3]: -simulation_instructions
argv[4]: 200000000
argv[5]: -traces
argv[6]: traces/spec2k17_ten/605.mcf_s-782B.champsimtrace.xz
CPU 0 runs traces/spec2k17_ten/605.mcf_s-782B.champsimtrace.xz
.xz
CPU 0 Tage branch predictor
BTB has LRU replacement policy
ITLB has LRU replacement policy
DTLB has LRU replacement policy
STLB has LRU replacement policy
L1I has LRU replacement policy
History Sets: 8
History Ways: 16
BERTI Size: 16
BERTI Stride Size: 16
L1D has LRU replacement policy
Initialize SRRIP state for L2C
Initialize DRRIP state for LLC
Heartbeat CPU 0 instructions: 10000001 cycles: 3758983 heartbeat IPC: 2.66029 cumulative IPC: 2.66029 (Simulation time: 0 hr 13 min 20 sec) 
Heartbeat CPU 0 instructions: 20000000 cycles: 7488324 heartbeat IPC: 2.68144 cumulative IPC: 2.67082 (Simulation time: 0 hr 22 min 24 sec) 
Heartbeat CPU 0 instructions: 30000000 cycles: 11272156 heartbeat IPC: 2.64282 cumulative IPC: 2.66143 (Simulation time: 0 hr 30 min 1 sec) 
Heartbeat CPU 0 instructions: 40000003 cycles: 15027398 heartbeat IPC: 2.66295 cumulative IPC: 2.6618 (Simulation time: 0 hr 38 min 22 sec) 
Heartbeat CPU 0 instructions: 50000000 cycles: 18820524 heartbeat IPC: 2.63635 cumulative IPC: 2.65667 (Simulation time: 0 hr 46 min 38 sec) 

Warmup complete CPU 0 instructions: 50000001 cycles: 18820525 (Simulation time: 0 hr 46 min 38 sec) 

Heartbeat CPU 0 instructions: 60000000 cycles: 60199270 heartbeat IPC: 0.24167 cumulative IPC: 0.24167 (Simulation time: 1 hr 2 min 53 sec) 
Heartbeat CPU 0 instructions: 70000002 cycles: 100634037 heartbeat IPC: 0.247312 cumulative IPC: 0.244458 (Simulation time: 1 hr 16 min 9 sec) 
Heartbeat CPU 0 instructions: 80000002 cycles: 140708534 heartbeat IPC: 0.249535 cumulative IPC: 0.246128 (Simulation time: 1 hr 27 min 27 sec) 
Heartbeat CPU 0 instructions: 90000000 cycles: 183054846 heartbeat IPC: 0.236148 cumulative IPC: 0.243554 (Simulation time: 1 hr 40 min 24 sec) 
Heartbeat CPU 0 instructions: 100000001 cycles: 229386142 heartbeat IPC: 0.215837 cumulative IPC: 0.237456 (Simulation time: 1 hr 48 min 51 sec) 
Heartbeat CPU 0 instructions: 110000000 cycles: 276842137 heartbeat IPC: 0.210722 cumulative IPC: 0.232539 (Simulation time: 1 hr 57 min 50 sec) 
Heartbeat CPU 0 instructions: 120000000 cycles: 321538228 heartbeat IPC: 0.223733 cumulative IPC: 0.231239 (Simulation time: 2 hr 7 min 40 sec) 
Heartbeat CPU 0 instructions: 130000003 cycles: 362971883 heartbeat IPC: 0.24135 cumulative IPC: 0.232456 (Simulation time: 2 hr 17 min 3 sec) 
Heartbeat CPU 0 instructions: 140000001 cycles: 403409633 heartbeat IPC: 0.247294 cumulative IPC: 0.234016 (Simulation time: 2 hr 29 min 17 sec) 
Heartbeat CPU 0 instructions: 150000000 cycles: 445085342 heartbeat IPC: 0.239948 cumulative IPC: 0.234596 (Simulation time: 2 hr 40 min 39 sec) 
Heartbeat CPU 0 instructions: 160000002 cycles: 486473430 heartbeat IPC: 0.241615 cumulative IPC: 0.235217 (Simulation time: 2 hr 51 min 40 sec) 
Heartbeat CPU 0 instructions: 170000001 cycles: 527884419 heartbeat IPC: 0.241482 cumulative IPC: 0.235727 (Simulation time: 3 hr 1 min 32 sec) 
Heartbeat CPU 0 instructions: 180000002 cycles: 569353974 heartbeat IPC: 0.241141 cumulative IPC: 0.236135 (Simulation time: 3 hr 9 min 53 sec) 
Heartbeat CPU 0 instructions: 190000001 cycles: 615173819 heartbeat IPC: 0.218246 cumulative IPC: 0.23476 (Simulation time: 3 hr 17 min 3 sec) 
Heartbeat CPU 0 instructions: 200000000 cycles: 662477188 heartbeat IPC: 0.211401 cumulative IPC: 0.233043 (Simulation time: 3 hr 23 min 3 sec) 
Heartbeat CPU 0 instructions: 210000003 cycles: 707583612 heartbeat IPC: 0.221698 cumulative IPC: 0.2323 (Simulation time: 3 hr 27 min 54 sec) 
Heartbeat CPU 0 instructions: 220000000 cycles: 750538311 heartbeat IPC: 0.232803 cumulative IPC: 0.23233 (Simulation time: 3 hr 33 min 10 sec) 
Heartbeat CPU 0 instructions: 230000001 cycles: 792988135 heartbeat IPC: 0.235572 cumulative IPC: 0.232508 (Simulation time: 3 hr 38 min 47 sec) 
Heartbeat CPU 0 instructions: 240000003 cycles: 835394939 heartbeat IPC: 0.235811 cumulative IPC: 0.232679 (Simulation time: 3 hr 41 min 42 sec) 
Heartbeat CPU 0 instructions: 250000003 cycles: 876828538 heartbeat IPC: 0.24135 cumulative IPC: 0.233098 (Simulation time: 3 hr 44 min 22 sec) 
Finished CPU 0 instructions: 200000002 cycles: 858008013 cumulative IPC: 0.233098 (Simulation time: 3 hr 44 min 22 sec) 

ChampSim completed all CPUs

Region of Interest Statistics

CPU 0 cumulative IPC: 0.233098 instructions: 200000002 cycles: 858008013
ITLB TOTAL     ACCESS:   32721517  HIT:   32721517  MISS:          0  HIT %:        100  MISS %:          0   MPKI: 0
ITLB LOAD TRANSLATION ACCESS:   32721517  HIT:   32721517  MISS:          0  HIT %:        100  MISS %:          0   MPKI: 0
ITLB PREFETCH  REQUESTED:          0  ISSUED:          0  USEFUL:          0  USELESS:          0
ITLB USEFUL LOAD PREFETCHES:          0 PREFETCH ISSUED TO LOWER LEVEL:          0  ACCURACY: -nan
ITLB TIMELY PREFETCHES:          0 LATE PREFETCHES: 0 DROPPED PREFETCHES: 0
ITLB PREFETCHES SAME FILL-ORIGIN LEVEL: 0 DIFFERENT FILL-ORIGIN LEVEL: 0
ITLB AVERAGE MISS LATENCY: -nan cycles
ITLB RQ	ACCESS:   33202698	FORWARD:          0	MERGED:     481182	TO_CACHE:   32721516

DTLB TOTAL     ACCESS:   41459409  HIT:   23836058  MISS:   17623351  HIT %:    57.4925  MISS %:    42.5075   MPKI: 88.1168
DTLB LOAD TRANSLATION ACCESS:   41459409  HIT:   23836058  MISS:   17623351  HIT %:    57.4925  MISS %:    42.5075   MPKI: 88.1168
DTLB PREFETCH  REQUESTED:          0  ISSUED:          0  USEFUL:          0  USELESS:          0
DTLB USEFUL LOAD PREFETCHES:          0 PREFETCH ISSUED TO LOWER LEVEL:          0  ACCURACY: -nan
DTLB TIMELY PREFETCHES:          0 LATE PREFETCHES: 0 DROPPED PREFETCHES: 0
DTLB PREFETCHES SAME FILL-ORIGIN LEVEL: 0 DIFFERENT FILL-ORIGIN LEVEL: 0
DTLB AVERAGE MISS LATENCY: 11.1749 cycles
DTLB RQ	ACCESS:   45610124	FORWARD:          0	MERGED:    3883944	TO_CACHE:   41726180

STLB TOTAL     ACCESS:   25859837  HIT:   25621051  MISS:     238786  HIT %:    99.0766  MISS %:   0.923386   MPKI: 1.19393
STLB LOAD TRANSLATION ACCESS:   17623351  HIT:   17385924  MISS:     237427  HIT %:    98.6528  MISS %:    1.34723   MPKI: 1.18713
STLB TRANSLATION FROM L1D PREFETCHER ACCESS:    8236486  HIT:    8235127  MISS:       1359  HIT %:    99.9835  MISS %:  0.0164998   MPKI: 0.006795
STLB PREFETCH  REQUESTED:          0  ISSUED:          0  USEFUL:       1200  USELESS:        159
STLB USEFUL LOAD PREFETCHES:       1200 PREFETCH ISSUED TO LOWER LEVEL:          0  ACCURACY: inf
STLB TIMELY PREFETCHES:       1200 LATE PREFETCHES: 70403 DROPPED PREFETCHES: 4080362
STLB PREFETCHES SAME FILL-ORIGIN LEVEL: 0 DIFFERENT FILL-ORIGIN LEVEL: 0
STLB AVERAGE MISS LATENCY: 121.196 cycles
STLB RQ	ACCESS:   89892145	FORWARD:          0	MERGED:   59491180	TO_CACHE:   30400965

STLB Hit, L1D data hit: 0
STLB Hit, L2C data hit: 0
STLB Hit, LLC data hit: 0
STLB Hit, LLC data miss: 0
STLB STLB hints to L2: 0
L1D TOTAL     ACCESS:   87222636  HIT:   56261570  MISS:   30961066  HIT %:    64.5034  MISS %:    35.4966   MPKI: 154.805
L1D LOAD      ACCESS:   41981052  HIT:   20113574  MISS:   21867478  HIT %:    47.9111  MISS %:    52.0889   MPKI: 109.337
L1D RFO       ACCESS:    3350446  HIT:    3289922  MISS:      60524  HIT %:    98.1936  MISS %:    1.80645   MPKI: 0.30262
L1D PREFETCH  ACCESS:   41891138  HIT:   32858074  MISS:    9033064  HIT %:    78.4368  MISS %:    21.5632   MPKI: 45.1653
L1D PREFETCH  REQUESTED:  175079269  ISSUED:  160152403  USEFUL:    9028963  USELESS:       4092
L1D USEFUL LOAD PREFETCHES:    9028963 PREFETCH ISSUED TO LOWER LEVEL:   18405877  ACCURACY: 49.0548
L1D TIMELY PREFETCHES:    9028963 LATE PREFETCHES: 609051 DROPPED PREFETCHES: 12839842
L1D PREFETCHES SAME FILL-ORIGIN LEVEL: 9642166 DIFFERENT FILL-ORIGIN LEVEL: 8763711
L1D AVERAGE MISS LATENCY: 76.6803 cycles
L1D RQ	ACCESS:   71274693	FORWARD:          0	MERGED:   28570671	TO_CACHE:   42154753
L1D WQ	ACCESS:    3578449	FORWARD:     549307	MERGED:     123078	TO_CACHE:    3455371
L1D PQ	ACCESS:   87883609	FORWARD:          0	MERGED:   15614777	TO_CACHE:   72268794

L1D UNIQUE REGIONS ACCESSED: 0
L1D REGIONS CONFLICTS: 0
L1D Cross Page Prefetch Requests: 21593792
L1D Same Page Prefetch Requests: 88159119
L1D ROI Sum of L1D PQ occupancy: 1631648387
L1D PREFETCHES PUSHED FROM L2C: 0
L1I TOTAL     ACCESS:   33202696  HIT:   33202696  MISS:          0  HIT %:        100  MISS %:          0   MPKI: 0
L1I LOAD      ACCESS:   33202696  HIT:   33202696  MISS:          0  HIT %:        100  MISS %:          0   MPKI: 0
L1I PREFETCH  REQUESTED:          0  ISSUED:          0  USEFUL:          0  USELESS:          0
L1I USEFUL LOAD PREFETCHES:          0 PREFETCH ISSUED TO LOWER LEVEL:          0  ACCURACY: -nan
L1I TIMELY PREFETCHES:          0 LATE PREFETCHES: 0 DROPPED PREFETCHES: 0
L1I PREFETCHES SAME FILL-ORIGIN LEVEL: 0 DIFFERENT FILL-ORIGIN LEVEL: 0
L1I AVERAGE MISS LATENCY: -nan cycles
L1I RQ	ACCESS:   40655577	FORWARD:          0	MERGED:    7452879	TO_CACHE:   33202698

BTB TOTAL     ACCESS:   60210742  HIT:   60015897  MISS:     194845  HIT %:    99.6764  MISS %:   0.323605   MPKI: 0.974225
BTB BRANCH_DIRECT_JUMP	ACCESS:    7722186  HIT:    7722149  MISS:         37
BTB BRANCH_INDIRECT	ACCESS:          0  HIT:          0  MISS:          0
BTB BRANCH_CONDITIONAL	ACCESS:   51083201  HIT:   51083119  MISS:         82
BTB BRANCH_DIRECT_CALL	ACCESS:     648844  HIT:     648826  MISS:         18
BTB BRANCH_INDIRECT_CALL	ACCESS:      53834  HIT:      53826  MISS:          8
BTB BRANCH_RETURN	ACCESS:     702677  HIT:     507977  MISS:     194700
BTB BRANCH_OTHER ACCESS:          0  HIT:          0  MISS:          0

L2C TOTAL     ACCESS:   41361004  HIT:   15452050  MISS:   25908954  HIT %:     37.359  MISS %:     62.641   MPKI: 129.545
L2C LOAD      ACCESS:   21258411  HIT:    6563666  MISS:   14694745  HIT %:    30.8756  MISS %:    69.1244   MPKI: 73.4737
L2C DATA LOAD MPKI: 73.4737
L2C INSTRUCTION LOAD MPKI: 0
L2C RFO       ACCESS:      60524  HIT:      39027  MISS:      21497  HIT %:    64.4819  MISS %:    35.5181   MPKI: 0.107485
L2C PREFETCH  ACCESS:   15141080  HIT:    4031445  MISS:   11109635  HIT %:    26.6259  MISS %:    73.3741   MPKI: 55.5482
L2C DATA PREFETCH MPKI: 55.5482
L2C INSTRUCTION PREFETCH MPKI: 0
L2C WRITEBACK ACCESS:     503786  HIT:     498229  MISS:       5557  HIT %:     98.897  MISS %:    1.10305   MPKI: 0.027785
L2C LOAD TRANSLATION ACCESS:     240396  HIT:     186059  MISS:      54337  HIT %:    77.3969  MISS %:    22.6031   MPKI: 0.271685
L2C TRANSLATION FROM L1D PREFETCHER ACCESS:    4156807  HIT:    4133624  MISS:      23183  HIT %:    99.4423  MISS %:   0.557712   MPKI: 0.115915
L2C PREFETCH  REQUESTED:          0  ISSUED:          0  USEFUL:     891365  USELESS:   10241435
L2C USEFUL LOAD PREFETCHES:     891365 PREFETCH ISSUED TO LOWER LEVEL:   11310663  ACCURACY: 7.88075
L2C TIMELY PREFETCHES:     891365 LATE PREFETCHES: 201028 DROPPED PREFETCHES: 0
L2C PREFETCHES SAME FILL-ORIGIN LEVEL: 4857506 DIFFERENT FILL-ORIGIN LEVEL: 0
L2C AVERAGE MISS LATENCY: 95.0697 cycles
L2C RQ	ACCESS:   25716152	FORWARD:          0	MERGED:          0	TO_CACHE:   25716138
L2C WQ	ACCESS:     503786	FORWARD:         14	MERGED:          0	TO_CACHE:     503786
L2C PQ	ACCESS:   18405546	FORWARD:          0	MERGED:       8282	TO_CACHE:   18397264

L2C Instructions Evicting Data 0
L2C Translations Evicting Data 77388
L2C Data Evicting Data 25748501
L2C Instructions Evicting Instructions 0
L2C Translations Evicting Instructions 0
L2C Data Evicting Instructions 0
L2C Instructions Evicting Translations 0
L2C Translations Evicting Translations 132
L2C Data Evicting Translations 77376
L2C Dense regions hint from L2: 0
PSCL5 TOTAL     ACCESS:    4389428  HIT:    4389428  MISS:          0  HIT %:        100  MISS %:          0   MPKI: 0
PSCL5 LOAD TRANSLATION ACCESS:     237304  HIT:     237304  MISS:          0  HIT %:        100  MISS %:          0   MPKI: 0
PSCL5 TRANSLATION FROM L1D PREFETCHER ACCESS:    4152124  HIT:    4152124  MISS:          0  HIT %:        100  MISS %:          0   MPKI: 0
PSCL5 PREFETCH  REQUESTED:          0  ISSUED:          0  USEFUL:          0  USELESS:          0
PSCL5 USEFUL LOAD PREFETCHES:          0 PREFETCH ISSUED TO LOWER LEVEL:          0  ACCURACY: -nan
PSCL5 TIMELY PREFETCHES:          0 LATE PREFETCHES: 0 DROPPED PREFETCHES: 0
PSCL5 PREFETCHES SAME FILL-ORIGIN LEVEL: 0 DIFFERENT FILL-ORIGIN LEVEL: 0

PSCL4 TOTAL     ACCESS:    4389428  HIT:    4389428  MISS:          0  HIT %:        100  MISS %:          0   MPKI: 0
PSCL4 LOAD TRANSLATION ACCESS:     237304  HIT:     237304  MISS:          0  HIT %:        100  MISS %:          0   MPKI: 0
PSCL4 TRANSLATION FROM L1D PREFETCHER ACCESS:    4152124  HIT:    4152124  MISS:          0  HIT %:        100  MISS %:          0   MPKI: 0
PSCL4 PREFETCH  REQUESTED:          0  ISSUED:          0  USEFUL:          0  USELESS:          0
PSCL4 USEFUL LOAD PREFETCHES:          0 PREFETCH ISSUED TO LOWER LEVEL:          0  ACCURACY: -nan
PSCL4 TIMELY PREFETCHES:          0 LATE PREFETCHES: 0 DROPPED PREFETCHES: 0
PSCL4 PREFETCHES SAME FILL-ORIGIN LEVEL: 0 DIFFERENT FILL-ORIGIN LEVEL: 0

PSCL3 TOTAL     ACCESS:    4389428  HIT:    4389428  MISS:          0  HIT %:        100  MISS %:          0   MPKI: 0
PSCL3 LOAD TRANSLATION ACCESS:     237304  HIT:     237304  MISS:          0  HIT %:        100  MISS %:          0   MPKI: 0
PSCL3 TRANSLATION FROM L1D PREFETCHER ACCESS:    4152124  HIT:    4152124  MISS:          0  HIT %:        100  MISS %:          0   MPKI: 0
PSCL3 PREFETCH  REQUESTED:          0  ISSUED:          0  USEFUL:          0  USELESS:          0
PSCL3 USEFUL LOAD PREFETCHES:          0 PREFETCH ISSUED TO LOWER LEVEL:          0  ACCURACY: -nan
PSCL3 TIMELY PREFETCHES:          0 LATE PREFETCHES: 0 DROPPED PREFETCHES: 0
PSCL3 PREFETCHES SAME FILL-ORIGIN LEVEL: 0 DIFFERENT FILL-ORIGIN LEVEL: 0

PSCL2 TOTAL     ACCESS:    4379985  HIT:    4376441  MISS:       3544  HIT %:    99.9191  MISS %:  0.0809135   MPKI: 0.01772
PSCL2 LOAD TRANSLATION ACCESS:     237313  HIT:     233769  MISS:       3544  HIT %:    98.5066  MISS %:    1.49339   MPKI: 0.01772
PSCL2 TRANSLATION FROM L1D PREFETCHER ACCESS:    4142672  HIT:    4142672  MISS:          0  HIT %:        100  MISS %:          0   MPKI: 0
PSCL2 PREFETCH  REQUESTED:          0  ISSUED:          0  USEFUL:          0  USELESS:          0
PSCL2 USEFUL LOAD PREFETCHES:          0 PREFETCH ISSUED TO LOWER LEVEL:          0  ACCURACY: -nan
PSCL2 TIMELY PREFETCHES:          0 LATE PREFETCHES: 0 DROPPED PREFETCHES: 0
PSCL2 PREFETCHES SAME FILL-ORIGIN LEVEL: 0 DIFFERENT FILL-ORIGIN LEVEL: 0

LLC TOTAL     ACCESS:   26180176  HIT:   12471139  MISS:   13709037  HIT %:    47.6358  MISS %:    52.3642   MPKI: 68.5452
LLC LOAD      ACCESS:   14493710  HIT:   11597846  MISS:    2895864  HIT %:    80.0199  MISS %:    19.9801   MPKI: 14.4793
LLC RFO       ACCESS:      21497  HIT:      17437  MISS:       4060  HIT %:    81.1136  MISS %:    18.8864   MPKI: 0.0203
LLC PREFETCH  ACCESS:   11310663  HIT:     619467  MISS:   10691196  HIT %:    5.47684  MISS %:    94.5232   MPKI: 53.456
LLC WRITEBACK ACCESS:     276786  HIT:     205246  MISS:      71540  HIT %:    74.1533  MISS %:    25.8467   MPKI: 0.3577
LLC LOAD TRANSLATION ACCESS:      54337  HIT:      30511  MISS:      23826  HIT %:    56.1514  MISS %:    43.8486   MPKI: 0.11913
LLC TRANSLATION FROM L1D PREFETCHER ACCESS:      23183  HIT:        632  MISS:      22551  HIT %:    2.72614  MISS %:    97.2739   MPKI: 0.112755
LLC PREFETCH  REQUESTED:          0  ISSUED:          0  USEFUL:       1921  USELESS:   10712290
LLC USEFUL LOAD PREFETCHES:       1921 PREFETCH ISSUED TO LOWER LEVEL:   10691196  ACCURACY: 0.0179681
LLC TIMELY PREFETCHES:       1921 LATE PREFETCHES: 0 DROPPED PREFETCHES: 0
LLC PREFETCHES SAME FILL-ORIGIN LEVEL: 0 DIFFERENT FILL-ORIGIN LEVEL: 0
LLC AVERAGE MISS LATENCY: 123.072 cycles
LLC RQ	ACCESS:   14592734	FORWARD:          0	MERGED:          0	TO_CACHE:   14592727
LLC WQ	ACCESS:     276786	FORWARD:          7	MERGED:          0	TO_CACHE:     276786
LLC PQ	ACCESS:   11310663	FORWARD:          0	MERGED:          0	TO_CACHE:   11310663

LLC Dense regions hint to LLC: 0

RAW hits: 477806
Loads Generated: 71752500
Loads sent to L1D: 71274693
Stores Generated: 3578449
Stores sent to L1D: 3578449
Major fault: 0 Minor fault: 219750
Allocated PAGES: 219750

DRAM Statistics
 CHANNEL 0
 RQ ROW_BUFFER_HIT:    9255818  ROW_BUFFER_MISS:    4381668
 DBUS_CONGESTED:       3173
 WQ ROW_BUFFER_HIT:      37231  ROW_BUFFER_MISS:      57763  FULL:          0

 AVG_CONGESTED_CYCLE: 4
 All warmup complete: 2
Channel 0 Bank busy for read cycles: 0
Channel 0 Bank busy for write cycles: 0
Channel 0
Rank 0
0banks busy for read cycles: 345443703
0banks busy for write cycles: 71812
1banks busy for read cycles: 231886921
1banks busy for write cycles: 16518707
2banks busy for read cycles: 114877412
2banks busy for write cycles: 1945831
3banks busy for read cycles: 57862024
3banks busy for write cycles: 419671
4banks busy for read cycles: 30712325
4banks busy for write cycles: 160082
5banks busy for read cycles: 20480943
5banks busy for write cycles: 94333
6banks busy for read cycles: 14492797
6banks busy for write cycles: 65384
7banks busy for read cycles: 10187342
7banks busy for write cycles: 59680
8banks busy for read cycles: 12675921
8banks busy for write cycles: 53126

CPU 0 Branch Prediction Accuracy: 96.6109% MPKI: 8.82079 Average ROB Occupancy at Mispredict: 51.1869
Branch types
NOT_BRANCH: 138818908 69.4095%
BRANCH_DIRECT_JUMP: 7722186 3.86109%
BRANCH_INDIRECT: 0 0%
BRANCH_CONDITIONAL: 52053291 26.0266%
BRANCH_DIRECT_CALL: 648844 0.324422%
BRANCH_INDIRECT_CALL: 53834 0.026917%
BRANCH_RETURN: 702677 0.351338%
BRANCH_OTHER: 0 0%

DRAM PAGES: 1048576
Allocated PAGES: 219750
