
*** ChampSim Multicore Out-of-Order Simulator ***

Warmup Instructions: 50000000
Simulation Instructions: 200000000
Number of CPUs: 1
LLC sets: 2048
LLC ways: 16
Off-chip DRAM Size: 4096 MB Channels: 1 Width: 64-bit Data Rate: 6400 MT/s
argv[0]: ./ChampSim/Berti/bin/multiperspective_perceptron8kb-no-vberti-no-no-no-no-no-lru-lru-lru-srrip-drrip-lru-lru-lru-1core-no
argv[1]: -warmup_instructions
argv[2]: 50000000
argv[3]: -simulation_instructions
argv[4]: 200000000
argv[5]: -traces
argv[6]: traces/spec2k17_ten/657.xz_s-2302B.champsimtrace.xz
CPU 0 runs traces/spec2k17_ten/657.xz_s-2302B.champsimtrace.xz
.xz
CPU 0 Multiperspective perceptron branch predictor
BTB has LRU replacement policy
ITLB has LRU replacement policy
DTLB has LRU replacement policy
STLB has LRU replacement policy
L1I has LRU replacement policy
History Sets: 8
History Ways: 16
BERTI Size: 16
BERTI Stride Size: 16
L1D has LRU replacement policy
Initialize SRRIP state for L2C
Initialize DRRIP state for LLC
Heartbeat CPU 0 instructions: 10000003 cycles: 2790301 heartbeat IPC: 3.58384 cumulative IPC: 3.58384 (Simulation time: 0 hr 7 min 20 sec) 
Heartbeat CPU 0 instructions: 20000002 cycles: 5584892 heartbeat IPC: 3.57834 cumulative IPC: 3.58109 (Simulation time: 0 hr 15 min 6 sec) 
Heartbeat CPU 0 instructions: 30000000 cycles: 8410566 heartbeat IPC: 3.53898 cumulative IPC: 3.56694 (Simulation time: 0 hr 20 min 43 sec) 
Heartbeat CPU 0 instructions: 40000003 cycles: 11196390 heartbeat IPC: 3.5896 cumulative IPC: 3.57258 (Simulation time: 0 hr 26 min 47 sec) 
Heartbeat CPU 0 instructions: 50000000 cycles: 13988148 heartbeat IPC: 3.58197 cumulative IPC: 3.57445 (Simulation time: 0 hr 32 min 2 sec) 

Warmup complete CPU 0 instructions: 50000004 cycles: 13988149 (Simulation time: 0 hr 32 min 2 sec) 

Heartbeat CPU 0 instructions: 60000001 cycles: 31853060 heartbeat IPC: 0.559757 cumulative IPC: 0.559756 (Simulation time: 0 hr 40 min 10 sec) 
Heartbeat CPU 0 instructions: 70000000 cycles: 49069483 heartbeat IPC: 0.580841 cumulative IPC: 0.570104 (Simulation time: 0 hr 45 min 55 sec) 
Heartbeat CPU 0 instructions: 80000003 cycles: 66705942 heartbeat IPC: 0.567007 cumulative IPC: 0.569068 (Simulation time: 0 hr 54 min 8 sec) 
Heartbeat CPU 0 instructions: 90000002 cycles: 84641277 heartbeat IPC: 0.557559 cumulative IPC: 0.566146 (Simulation time: 1 hr 2 min 40 sec) 
Heartbeat CPU 0 instructions: 100000001 cycles: 101873181 heartbeat IPC: 0.580319 cumulative IPC: 0.568925 (Simulation time: 1 hr 10 min 50 sec) 
Heartbeat CPU 0 instructions: 110000000 cycles: 119717158 heartbeat IPC: 0.560413 cumulative IPC: 0.567488 (Simulation time: 1 hr 19 min 11 sec) 
Heartbeat CPU 0 instructions: 120000003 cycles: 137821867 heartbeat IPC: 0.552343 cumulative IPC: 0.565274 (Simulation time: 1 hr 25 min 32 sec) 
Heartbeat CPU 0 instructions: 130000000 cycles: 155889019 heartbeat IPC: 0.553491 cumulative IPC: 0.563774 (Simulation time: 1 hr 32 min 9 sec) 
Heartbeat CPU 0 instructions: 140000000 cycles: 172553564 heartbeat IPC: 0.600076 cumulative IPC: 0.567589 (Simulation time: 1 hr 37 min 24 sec) 
Heartbeat CPU 0 instructions: 150000003 cycles: 190624226 heartbeat IPC: 0.553383 cumulative IPC: 0.566136 (Simulation time: 1 hr 42 min 52 sec) 
Heartbeat CPU 0 instructions: 160000001 cycles: 208717733 heartbeat IPC: 0.552684 cumulative IPC: 0.564886 (Simulation time: 1 hr 48 min 29 sec) 
Heartbeat CPU 0 instructions: 170000000 cycles: 224525763 heartbeat IPC: 0.63259 cumulative IPC: 0.569969 (Simulation time: 1 hr 54 min 17 sec) 
Heartbeat CPU 0 instructions: 180000001 cycles: 239474576 heartbeat IPC: 0.668949 cumulative IPC: 0.576531 (Simulation time: 2 hr 1 min 57 sec) 
Heartbeat CPU 0 instructions: 190000002 cycles: 254376200 heartbeat IPC: 0.671068 cumulative IPC: 0.582392 (Simulation time: 2 hr 7 min 49 sec) 
Heartbeat CPU 0 instructions: 200000002 cycles: 269296263 heartbeat IPC: 0.670238 cumulative IPC: 0.587525 (Simulation time: 2 hr 12 min 40 sec) 
Heartbeat CPU 0 instructions: 210000000 cycles: 284203419 heartbeat IPC: 0.670819 cumulative IPC: 0.59212 (Simulation time: 2 hr 19 min 13 sec) 
Heartbeat CPU 0 instructions: 220000000 cycles: 299161905 heartbeat IPC: 0.668517 cumulative IPC: 0.596128 (Simulation time: 2 hr 26 min 37 sec) 
Heartbeat CPU 0 instructions: 230000003 cycles: 314298212 heartbeat IPC: 0.660663 cumulative IPC: 0.59938 (Simulation time: 2 hr 34 min 20 sec) 
Heartbeat CPU 0 instructions: 240000001 cycles: 329495670 heartbeat IPC: 0.658005 cumulative IPC: 0.602204 (Simulation time: 2 hr 41 min 0 sec) 
Heartbeat CPU 0 instructions: 250000003 cycles: 344637572 heartbeat IPC: 0.660419 cumulative IPC: 0.60487 (Simulation time: 2 hr 47 min 56 sec) 
Finished CPU 0 instructions: 200000003 cycles: 330649424 cumulative IPC: 0.60487 (Simulation time: 2 hr 47 min 57 sec) 

ChampSim completed all CPUs

Region of Interest Statistics

CPU 0 cumulative IPC: 0.60487 instructions: 200000003 cycles: 330649424
ITLB TOTAL     ACCESS:   28782414  HIT:   28782414  MISS:          0  HIT %:        100  MISS %:          0   MPKI: 0
ITLB LOAD TRANSLATION ACCESS:   28782414  HIT:   28782414  MISS:          0  HIT %:        100  MISS %:          0   MPKI: 0
ITLB PREFETCH  REQUESTED:          0  ISSUED:          0  USEFUL:          0  USELESS:          0
ITLB USEFUL LOAD PREFETCHES:          0 PREFETCH ISSUED TO LOWER LEVEL:          0  ACCURACY: -nan
ITLB TIMELY PREFETCHES:          0 LATE PREFETCHES: 0 DROPPED PREFETCHES: 0
ITLB PREFETCHES SAME FILL-ORIGIN LEVEL: 0 DIFFERENT FILL-ORIGIN LEVEL: 0
ITLB AVERAGE MISS LATENCY: -nan cycles
ITLB RQ	ACCESS:   35202322	FORWARD:          0	MERGED:    6419909	TO_CACHE:   28782413

DTLB TOTAL     ACCESS:   40646568  HIT:   39726309  MISS:     920259  HIT %:    97.7359  MISS %:    2.26405   MPKI: 4.60129
DTLB LOAD TRANSLATION ACCESS:   40646568  HIT:   39726309  MISS:     920259  HIT %:    97.7359  MISS %:    2.26405   MPKI: 4.60129
DTLB PREFETCH  REQUESTED:          0  ISSUED:          0  USEFUL:          0  USELESS:          0
DTLB USEFUL LOAD PREFETCHES:          0 PREFETCH ISSUED TO LOWER LEVEL:          0  ACCURACY: -nan
DTLB TIMELY PREFETCHES:          0 LATE PREFETCHES: 0 DROPPED PREFETCHES: 0
DTLB PREFETCHES SAME FILL-ORIGIN LEVEL: 0 DIFFERENT FILL-ORIGIN LEVEL: 0
DTLB AVERAGE MISS LATENCY: 13.4159 cycles
DTLB RQ	ACCESS:   49869421	FORWARD:          0	MERGED:    9216596	TO_CACHE:   40652825

STLB TOTAL     ACCESS:    1319662  HIT:    1185406  MISS:     134256  HIT %:    89.8265  MISS %:    10.1735   MPKI: 0.67128
STLB LOAD TRANSLATION ACCESS:     920259  HIT:     786202  MISS:     134057  HIT %:    85.4327  MISS %:    14.5673   MPKI: 0.670285
STLB TRANSLATION FROM L1D PREFETCHER ACCESS:     399403  HIT:     399204  MISS:        199  HIT %:    99.9502  MISS %:  0.0498244   MPKI: 0.000995
STLB PREFETCH  REQUESTED:          0  ISSUED:          0  USEFUL:        147  USELESS:         52
STLB USEFUL LOAD PREFETCHES:        147 PREFETCH ISSUED TO LOWER LEVEL:          0  ACCURACY: inf
STLB TIMELY PREFETCHES:        147 LATE PREFETCHES: 51 DROPPED PREFETCHES: 3426
STLB PREFETCHES SAME FILL-ORIGIN LEVEL: 0 DIFFERENT FILL-ORIGIN LEVEL: 0
STLB AVERAGE MISS LATENCY: 30.217 cycles
STLB RQ	ACCESS:    2041844	FORWARD:          0	MERGED:     717559	TO_CACHE:    1324285

STLB Hit, L1D data hit: 0
STLB Hit, L2C data hit: 0
STLB Hit, LLC data hit: 0
STLB Hit, LLC data miss: 0
STLB STLB hints to L2: 0
L1D TOTAL     ACCESS:   50618169  HIT:   49499061  MISS:    1119108  HIT %:    97.7891  MISS %:    2.21088   MPKI: 5.59554
L1D LOAD      ACCESS:   32840390  HIT:   31864970  MISS:     975420  HIT %:    97.0298  MISS %:    2.97018   MPKI: 4.8771
L1D RFO       ACCESS:   16867894  HIT:   16731697  MISS:     136197  HIT %:    99.1926  MISS %:   0.807433   MPKI: 0.680985
L1D PREFETCH  ACCESS:     909885  HIT:     902394  MISS:       7491  HIT %:    99.1767  MISS %:   0.823291   MPKI: 0.037455
L1D PREFETCH  REQUESTED:    2287653  ISSUED:    2287420  USEFUL:       6223  USELESS:       1268
L1D USEFUL LOAD PREFETCHES:       6223 PREFETCH ISSUED TO LOWER LEVEL:     195029  ACCURACY: 3.19081
L1D TIMELY PREFETCHES:       6223 LATE PREFETCHES: 24 DROPPED PREFETCHES: 9988
L1D PREFETCHES SAME FILL-ORIGIN LEVEL: 7518 DIFFERENT FILL-ORIGIN LEVEL: 187511
L1D AVERAGE MISS LATENCY: 64.9119 cycles
L1D RQ	ACCESS:   45174262	FORWARD:          0	MERGED:   12068228	TO_CACHE:   32952054
L1D WQ	ACCESS:   17197816	FORWARD:     154009	MERGED:     280449	TO_CACHE:   16917367
L1D PQ	ACCESS:    1165835	FORWARD:          0	MERGED:      44221	TO_CACHE:    1121585

L1D UNIQUE REGIONS ACCESSED: 0
L1D REGIONS CONFLICTS: 0
L1D Cross Page Prefetch Requests: 138737
L1D Same Page Prefetch Requests: 1355320
L1D ROI Sum of L1D PQ occupancy: 15887627
L1D PREFETCHES PUSHED FROM L2C: 0
L1I TOTAL     ACCESS:   35202082  HIT:   35201690  MISS:        392  HIT %:    99.9989  MISS %: 0.00111357   MPKI: 0.00196
L1I LOAD      ACCESS:   35202082  HIT:   35201690  MISS:        392  HIT %:    99.9989  MISS %: 0.00111357   MPKI: 0.00196
L1I PREFETCH  REQUESTED:          0  ISSUED:          0  USEFUL:          0  USELESS:          0
L1I USEFUL LOAD PREFETCHES:          0 PREFETCH ISSUED TO LOWER LEVEL:          0  ACCURACY: -nan
L1I TIMELY PREFETCHES:          0 LATE PREFETCHES: 0 DROPPED PREFETCHES: 0
L1I PREFETCHES SAME FILL-ORIGIN LEVEL: 0 DIFFERENT FILL-ORIGIN LEVEL: 0
L1I AVERAGE MISS LATENCY: 80.7347 cycles
L1I RQ	ACCESS:   51293590	FORWARD:          0	MERGED:   16091268	TO_CACHE:   35202322

BTB TOTAL     ACCESS:   23485692  HIT:   23238860  MISS:     246832  HIT %:     98.949  MISS %:    1.05099   MPKI: 1.23416
BTB BRANCH_DIRECT_JUMP	ACCESS:    2818425  HIT:    2818347  MISS:         78
BTB BRANCH_INDIRECT	ACCESS:     447403  HIT:     208958  MISS:     238445
BTB BRANCH_CONDITIONAL	ACCESS:   19634890  HIT:   19634641  MISS:        249
BTB BRANCH_DIRECT_CALL	ACCESS:     190457  HIT:     190438  MISS:         19
BTB BRANCH_INDIRECT_CALL	ACCESS:     102031  HIT:     102024  MISS:          7
BTB BRANCH_RETURN	ACCESS:     292486  HIT:     284452  MISS:       8034
BTB BRANCH_OTHER ACCESS:          0  HIT:          0  MISS:          0

L2C TOTAL     ACCESS:    2195690  HIT:    1631085  MISS:     564605  HIT %:    74.2858  MISS %:    25.7142   MPKI: 2.82302
L2C LOAD      ACCESS:     975787  HIT:     518976  MISS:     456811  HIT %:    53.1854  MISS %:    46.8146   MPKI: 2.28405
L2C DATA LOAD MPKI: 2.28211
L2C INSTRUCTION LOAD MPKI: 0.001945
L2C RFO       ACCESS:     136194  HIT:      90234  MISS:      45960  HIT %:     66.254  MISS %:     33.746   MPKI: 0.2298
L2C PREFETCH  ACCESS:     187053  HIT:     167231  MISS:      19822  HIT %:     89.403  MISS %:     10.597   MPKI: 0.09911
L2C DATA PREFETCH MPKI: 0.09911
L2C INSTRUCTION PREFETCH MPKI: 0
L2C WRITEBACK ACCESS:     758816  HIT:     742831  MISS:      15985  HIT %:    97.8934  MISS %:    2.10657   MPKI: 0.079925
L2C LOAD TRANSLATION ACCESS:     134151  HIT:     108227  MISS:      25924  HIT %:    80.6755  MISS %:    19.3245   MPKI: 0.12962
L2C TRANSLATION FROM L1D PREFETCHER ACCESS:       3689  HIT:       3586  MISS:        103  HIT %:    97.2079  MISS %:    2.79208   MPKI: 0.000515
L2C PREFETCH  REQUESTED:          0  ISSUED:          0  USEFUL:       4986  USELESS:      14718
L2C USEFUL LOAD PREFETCHES:       4986 PREFETCH ISSUED TO LOWER LEVEL:      19877  ACCURACY: 25.0843
L2C TIMELY PREFETCHES:       4986 LATE PREFETCHES: 55 DROPPED PREFETCHES: 0
L2C PREFETCHES SAME FILL-ORIGIN LEVEL: 15421 DIFFERENT FILL-ORIGIN LEVEL: 0
L2C AVERAGE MISS LATENCY: 104.177 cycles
L2C RQ	ACCESS:    1249822	FORWARD:          0	MERGED:          0	TO_CACHE:    1249821
L2C WQ	ACCESS:     758816	FORWARD:          1	MERGED:          0	TO_CACHE:     758816
L2C PQ	ACCESS:     195029	FORWARD:          0	MERGED:         46	TO_CACHE:     194983

L2C Instructions Evicting Data 365
L2C Translations Evicting Data 24706
L2C Data Evicting Data 497580
L2C Instructions Evicting Instructions 8
L2C Translations Evicting Instructions 11
L2C Data Evicting Instructions 357
L2C Instructions Evicting Translations 16
L2C Translations Evicting Translations 1310
L2C Data Evicting Translations 24267
L2C Dense regions hint from L2: 0
PSCL5 TOTAL     ACCESS:     137733  HIT:     137733  MISS:          0  HIT %:        100  MISS %:          0   MPKI: 0
PSCL5 LOAD TRANSLATION ACCESS:     134057  HIT:     134057  MISS:          0  HIT %:        100  MISS %:          0   MPKI: 0
PSCL5 TRANSLATION FROM L1D PREFETCHER ACCESS:       3676  HIT:       3676  MISS:          0  HIT %:        100  MISS %:          0   MPKI: 0
PSCL5 PREFETCH  REQUESTED:          0  ISSUED:          0  USEFUL:          0  USELESS:          0
PSCL5 USEFUL LOAD PREFETCHES:          0 PREFETCH ISSUED TO LOWER LEVEL:          0  ACCURACY: -nan
PSCL5 TIMELY PREFETCHES:          0 LATE PREFETCHES: 0 DROPPED PREFETCHES: 0
PSCL5 PREFETCHES SAME FILL-ORIGIN LEVEL: 0 DIFFERENT FILL-ORIGIN LEVEL: 0

PSCL4 TOTAL     ACCESS:     137733  HIT:     137733  MISS:          0  HIT %:        100  MISS %:          0   MPKI: 0
PSCL4 LOAD TRANSLATION ACCESS:     134057  HIT:     134057  MISS:          0  HIT %:        100  MISS %:          0   MPKI: 0
PSCL4 TRANSLATION FROM L1D PREFETCHER ACCESS:       3676  HIT:       3676  MISS:          0  HIT %:        100  MISS %:          0   MPKI: 0
PSCL4 PREFETCH  REQUESTED:          0  ISSUED:          0  USEFUL:          0  USELESS:          0
PSCL4 USEFUL LOAD PREFETCHES:          0 PREFETCH ISSUED TO LOWER LEVEL:          0  ACCURACY: -nan
PSCL4 TIMELY PREFETCHES:          0 LATE PREFETCHES: 0 DROPPED PREFETCHES: 0
PSCL4 PREFETCHES SAME FILL-ORIGIN LEVEL: 0 DIFFERENT FILL-ORIGIN LEVEL: 0

PSCL3 TOTAL     ACCESS:     137733  HIT:     137733  MISS:          0  HIT %:        100  MISS %:          0   MPKI: 0
PSCL3 LOAD TRANSLATION ACCESS:     134057  HIT:     134057  MISS:          0  HIT %:        100  MISS %:          0   MPKI: 0
PSCL3 TRANSLATION FROM L1D PREFETCHER ACCESS:       3676  HIT:       3676  MISS:          0  HIT %:        100  MISS %:          0   MPKI: 0
PSCL3 PREFETCH  REQUESTED:          0  ISSUED:          0  USEFUL:          0  USELESS:          0
PSCL3 USEFUL LOAD PREFETCHES:          0 PREFETCH ISSUED TO LOWER LEVEL:          0  ACCURACY: -nan
PSCL3 TIMELY PREFETCHES:          0 LATE PREFETCHES: 0 DROPPED PREFETCHES: 0
PSCL3 PREFETCHES SAME FILL-ORIGIN LEVEL: 0 DIFFERENT FILL-ORIGIN LEVEL: 0

PSCL2 TOTAL     ACCESS:     137727  HIT:     137626  MISS:        101  HIT %:    99.9267  MISS %:  0.0733335   MPKI: 0.000505
PSCL2 LOAD TRANSLATION ACCESS:     134064  HIT:     133963  MISS:        101  HIT %:    99.9247  MISS %:  0.0753372   MPKI: 0.000505
PSCL2 TRANSLATION FROM L1D PREFETCHER ACCESS:       3663  HIT:       3663  MISS:          0  HIT %:        100  MISS %:          0   MPKI: 0
PSCL2 PREFETCH  REQUESTED:          0  ISSUED:          0  USEFUL:          0  USELESS:          0
PSCL2 USEFUL LOAD PREFETCHES:          0 PREFETCH ISSUED TO LOWER LEVEL:          0  ACCURACY: -nan
PSCL2 TIMELY PREFETCHES:          0 LATE PREFETCHES: 0 DROPPED PREFETCHES: 0
PSCL2 PREFETCHES SAME FILL-ORIGIN LEVEL: 0 DIFFERENT FILL-ORIGIN LEVEL: 0

LLC TOTAL     ACCESS:     900312  HIT:     650037  MISS:     250275  HIT %:    72.2013  MISS %:    27.7987   MPKI: 1.25137
LLC LOAD      ACCESS:     456759  HIT:     256316  MISS:     200443  HIT %:    56.1162  MISS %:    43.8838   MPKI: 1.00221
LLC RFO       ACCESS:      45956  HIT:      14138  MISS:      31818  HIT %:    30.7642  MISS %:    69.2358   MPKI: 0.15909
LLC PREFETCH  ACCESS:      19877  HIT:       9338  MISS:      10539  HIT %:    46.9789  MISS %:    53.0211   MPKI: 0.052695
LLC WRITEBACK ACCESS:     351693  HIT:     346213  MISS:       5480  HIT %:    98.4418  MISS %:    1.55818   MPKI: 0.0274
LLC LOAD TRANSLATION ACCESS:      25924  HIT:      23949  MISS:       1975  HIT %:    92.3816  MISS %:    7.61842   MPKI: 0.009875
LLC TRANSLATION FROM L1D PREFETCHER ACCESS:        103  HIT:         83  MISS:         20  HIT %:    80.5825  MISS %:    19.4175   MPKI: 0.0001
LLC PREFETCH  REQUESTED:          0  ISSUED:          0  USEFUL:        967  USELESS:       9134
LLC USEFUL LOAD PREFETCHES:        967 PREFETCH ISSUED TO LOWER LEVEL:      10539  ACCURACY: 9.17544
LLC TIMELY PREFETCHES:        967 LATE PREFETCHES: 0 DROPPED PREFETCHES: 0
LLC PREFETCHES SAME FILL-ORIGIN LEVEL: 0 DIFFERENT FILL-ORIGIN LEVEL: 0
LLC AVERAGE MISS LATENCY: 169.192 cycles
LLC RQ	ACCESS:     528743	FORWARD:          0	MERGED:          0	TO_CACHE:     528742
LLC WQ	ACCESS:     351693	FORWARD:          1	MERGED:          0	TO_CACHE:     351693
LLC PQ	ACCESS:      19877	FORWARD:          0	MERGED:          0	TO_CACHE:      19877

LLC Dense regions hint to LLC: 0

RAW hits: 2151896
Loads Generated: 47326160
Loads sent to L1D: 45174262
Stores Generated: 17197827
Stores sent to L1D: 17197816
Major fault: 0 Minor fault: 8202
Allocated PAGES: 8202

DRAM Statistics
 CHANNEL 0
 RQ ROW_BUFFER_HIT:       3472  ROW_BUFFER_MISS:     241323
 DBUS_CONGESTED:          4
 WQ ROW_BUFFER_HIT:      32794  ROW_BUFFER_MISS:     163447  FULL:          0

 AVG_CONGESTED_CYCLE: 5
 All warmup complete: 2
Channel 0 Bank busy for read cycles: 0
Channel 0 Bank busy for write cycles: 0
Channel 0
Rank 0
0banks busy for read cycles: 274219513
0banks busy for write cycles: 125550
1banks busy for read cycles: 27358470
1banks busy for write cycles: 19325721
2banks busy for read cycles: 3500028
2banks busy for write cycles: 4142180
3banks busy for read cycles: 455588
3banks busy for write cycles: 923330
4banks busy for read cycles: 86550
4banks busy for write cycles: 233879
5banks busy for read cycles: 24429
5banks busy for write cycles: 71162
6banks busy for read cycles: 11254
6banks busy for write cycles: 30744
7banks busy for read cycles: 4533
7banks busy for write cycles: 27990
8banks busy for read cycles: 9975
8banks busy for write cycles: 98529

CPU 0 Branch Prediction Accuracy: 90.7613% MPKI: 9.77192 Average ROB Occupancy at Mispredict: 26.5812
Branch types
NOT_BRANCH: 174994595 87.4973%
BRANCH_DIRECT_JUMP: 2818425 1.40921%
BRANCH_INDIRECT: 447403 0.223701%
BRANCH_CONDITIONAL: 21154324 10.5772%
BRANCH_DIRECT_CALL: 190457 0.0952285%
BRANCH_INDIRECT_CALL: 102031 0.0510155%
BRANCH_RETURN: 292486 0.146243%
BRANCH_OTHER: 0 0%

DRAM PAGES: 1048576
Allocated PAGES: 8202
