
*** ChampSim Multicore Out-of-Order Simulator ***

Warmup Instructions: 50000000
Simulation Instructions: 200000000
Number of CPUs: 1
LLC sets: 2048
LLC ways: 16
Off-chip DRAM Size: 4096 MB Channels: 1 Width: 64-bit Data Rate: 6400 MT/s
argv[0]: ./ChampSim/Berti/bin/multiperspective_perceptron8kb-no-vberti-no-no-no-no-no-lru-lru-lru-srrip-drrip-lru-lru-lru-1core-no
argv[1]: -warmup_instructions
argv[2]: 50000000
argv[3]: -simulation_instructions
argv[4]: 200000000
argv[5]: -traces
argv[6]: traces/spec2k17_ten/657.xz_s-4994B.champsimtrace.xz
CPU 0 runs traces/spec2k17_ten/657.xz_s-4994B.champsimtrace.xz
.xz
CPU 0 Multiperspective perceptron branch predictor
BTB has LRU replacement policy
ITLB has LRU replacement policy
DTLB has LRU replacement policy
STLB has LRU replacement policy
L1I has LRU replacement policy
History Sets: 8
History Ways: 16
BERTI Size: 16
BERTI Stride Size: 16
L1D has LRU replacement policy
Initialize SRRIP state for L2C
Initialize DRRIP state for LLC
Heartbeat CPU 0 instructions: 10000001 cycles: 2705487 heartbeat IPC: 3.69619 cumulative IPC: 3.69619 (Simulation time: 0 hr 5 min 1 sec) 
Heartbeat CPU 0 instructions: 20000003 cycles: 5408738 heartbeat IPC: 3.69925 cumulative IPC: 3.69772 (Simulation time: 0 hr 6 min 36 sec) 
Heartbeat CPU 0 instructions: 30000000 cycles: 8120847 heartbeat IPC: 3.68717 cumulative IPC: 3.6942 (Simulation time: 0 hr 8 min 32 sec) 
Heartbeat CPU 0 instructions: 40000000 cycles: 10839352 heartbeat IPC: 3.67849 cumulative IPC: 3.69026 (Simulation time: 0 hr 10 min 11 sec) 
Heartbeat CPU 0 instructions: 50000000 cycles: 13548459 heartbeat IPC: 3.69125 cumulative IPC: 3.69046 (Simulation time: 0 hr 13 min 44 sec) 

Warmup complete CPU 0 instructions: 50000004 cycles: 13548460 (Simulation time: 0 hr 13 min 44 sec) 

Heartbeat CPU 0 instructions: 60000000 cycles: 28902522 heartbeat IPC: 0.651293 cumulative IPC: 0.651293 (Simulation time: 0 hr 18 min 3 sec) 
Heartbeat CPU 0 instructions: 70000003 cycles: 44043671 heartbeat IPC: 0.660452 cumulative IPC: 0.655841 (Simulation time: 0 hr 23 min 54 sec) 
Heartbeat CPU 0 instructions: 80000000 cycles: 59261709 heartbeat IPC: 0.657115 cumulative IPC: 0.656265 (Simulation time: 0 hr 27 min 53 sec) 
Heartbeat CPU 0 instructions: 90000001 cycles: 74690597 heartbeat IPC: 0.648135 cumulative IPC: 0.654213 (Simulation time: 0 hr 33 min 0 sec) 
Heartbeat CPU 0 instructions: 100000000 cycles: 89896135 heartbeat IPC: 0.657655 cumulative IPC: 0.654899 (Simulation time: 0 hr 38 min 27 sec) 
Heartbeat CPU 0 instructions: 110000000 cycles: 105158367 heartbeat IPC: 0.655212 cumulative IPC: 0.654951 (Simulation time: 0 hr 44 min 55 sec) 
Heartbeat CPU 0 instructions: 120000000 cycles: 120528595 heartbeat IPC: 0.650608 cumulative IPC: 0.654327 (Simulation time: 0 hr 50 min 16 sec) 
Heartbeat CPU 0 instructions: 130000003 cycles: 136154272 heartbeat IPC: 0.639972 cumulative IPC: 0.652498 (Simulation time: 0 hr 57 min 47 sec) 
Heartbeat CPU 0 instructions: 140000002 cycles: 151697132 heartbeat IPC: 0.643382 cumulative IPC: 0.651472 (Simulation time: 1 hr 4 min 30 sec) 
Heartbeat CPU 0 instructions: 150000002 cycles: 168284168 heartbeat IPC: 0.60288 cumulative IPC: 0.646263 (Simulation time: 1 hr 11 min 27 sec) 
Heartbeat CPU 0 instructions: 160000000 cycles: 183798389 heartbeat IPC: 0.64457 cumulative IPC: 0.646109 (Simulation time: 1 hr 16 min 21 sec) 
Heartbeat CPU 0 instructions: 170000003 cycles: 199461953 heartbeat IPC: 0.638425 cumulative IPC: 0.645461 (Simulation time: 1 hr 20 min 31 sec) 
Heartbeat CPU 0 instructions: 180000002 cycles: 215327208 heartbeat IPC: 0.630308 cumulative IPC: 0.64427 (Simulation time: 1 hr 26 min 44 sec) 
Heartbeat CPU 0 instructions: 190000003 cycles: 232282293 heartbeat IPC: 0.589794 cumulative IPC: 0.640047 (Simulation time: 1 hr 32 min 31 sec) 
Heartbeat CPU 0 instructions: 200000000 cycles: 247876441 heartbeat IPC: 0.641266 cumulative IPC: 0.640128 (Simulation time: 1 hr 38 min 47 sec) 
Heartbeat CPU 0 instructions: 210000001 cycles: 263776453 heartbeat IPC: 0.62893 cumulative IPC: 0.639417 (Simulation time: 1 hr 44 min 1 sec) 
Heartbeat CPU 0 instructions: 220000000 cycles: 277537939 heartbeat IPC: 0.726666 cumulative IPC: 0.643965 (Simulation time: 1 hr 47 min 52 sec) 
Heartbeat CPU 0 instructions: 230000002 cycles: 292108125 heartbeat IPC: 0.686333 cumulative IPC: 0.646181 (Simulation time: 1 hr 52 min 56 sec) 
Heartbeat CPU 0 instructions: 240000001 cycles: 309187138 heartbeat IPC: 0.585514 cumulative IPC: 0.642676 (Simulation time: 1 hr 58 min 19 sec) 
Heartbeat CPU 0 instructions: 250000002 cycles: 324780741 heartbeat IPC: 0.641289 cumulative IPC: 0.642607 (Simulation time: 2 hr 3 min 41 sec) 
Finished CPU 0 instructions: 200000002 cycles: 311232282 cumulative IPC: 0.642607 (Simulation time: 2 hr 3 min 41 sec) 

ChampSim completed all CPUs

Region of Interest Statistics

CPU 0 cumulative IPC: 0.642607 instructions: 200000002 cycles: 311232282
ITLB TOTAL     ACCESS:   29749653  HIT:   29749652  MISS:          1  HIT %:        100  MISS %: 3.36138e-06   MPKI: 5e-06
ITLB LOAD TRANSLATION ACCESS:   29749653  HIT:   29749652  MISS:          1  HIT %:        100  MISS %: 3.36138e-06   MPKI: 5e-06
ITLB PREFETCH  REQUESTED:          0  ISSUED:          0  USEFUL:          0  USELESS:          0
ITLB USEFUL LOAD PREFETCHES:          0 PREFETCH ISSUED TO LOWER LEVEL:          0  ACCURACY: -nan
ITLB TIMELY PREFETCHES:          0 LATE PREFETCHES: 0 DROPPED PREFETCHES: 0
ITLB PREFETCHES SAME FILL-ORIGIN LEVEL: 0 DIFFERENT FILL-ORIGIN LEVEL: 0
ITLB AVERAGE MISS LATENCY: 150 cycles
ITLB RQ	ACCESS:   37533708	FORWARD:          0	MERGED:    7784056	TO_CACHE:   29749652

DTLB TOTAL     ACCESS:   27995771  HIT:   27980953  MISS:      14818  HIT %:    99.9471  MISS %:  0.0529294   MPKI: 0.07409
DTLB LOAD TRANSLATION ACCESS:   27995771  HIT:   27980953  MISS:      14818  HIT %:    99.9471  MISS %:  0.0529294   MPKI: 0.07409
DTLB PREFETCH  REQUESTED:          0  ISSUED:          0  USEFUL:          0  USELESS:          0
DTLB USEFUL LOAD PREFETCHES:          0 PREFETCH ISSUED TO LOWER LEVEL:          0  ACCURACY: -nan
DTLB TIMELY PREFETCHES:          0 LATE PREFETCHES: 0 DROPPED PREFETCHES: 0
DTLB PREFETCHES SAME FILL-ORIGIN LEVEL: 0 DIFFERENT FILL-ORIGIN LEVEL: 0
DTLB AVERAGE MISS LATENCY: 21.4099 cycles
DTLB RQ	ACCESS:   33026948	FORWARD:          0	MERGED:    5030311	TO_CACHE:   27996637

STLB TOTAL     ACCESS:    1642833  HIT:    1641481  MISS:       1352  HIT %:    99.9177  MISS %:  0.0822969   MPKI: 0.00676
STLB LOAD TRANSLATION ACCESS:      14819  HIT:      13467  MISS:       1352  HIT %:    90.8766  MISS %:    9.12342   MPKI: 0.00676
STLB TRANSLATION FROM L1D PREFETCHER ACCESS:    1628014  HIT:    1628014  MISS:          0  HIT %:        100  MISS %:          0   MPKI: 0
STLB PREFETCH  REQUESTED:          0  ISSUED:          0  USEFUL:          0  USELESS:          0
STLB USEFUL LOAD PREFETCHES:          0 PREFETCH ISSUED TO LOWER LEVEL:          0  ACCURACY: -nan
STLB TIMELY PREFETCHES:          0 LATE PREFETCHES: 154 DROPPED PREFETCHES: 55168
STLB PREFETCHES SAME FILL-ORIGIN LEVEL: 0 DIFFERENT FILL-ORIGIN LEVEL: 0
STLB AVERAGE MISS LATENCY: 124.174 cycles
STLB RQ	ACCESS:    5101888	FORWARD:          0	MERGED:    3400804	TO_CACHE:    1701084

STLB Hit, L1D data hit: 0
STLB Hit, L2C data hit: 0
STLB Hit, LLC data hit: 0
STLB Hit, LLC data miss: 0
STLB STLB hints to L2: 0
L1D TOTAL     ACCESS:   36587759  HIT:   36417137  MISS:     170622  HIT %:    99.5337  MISS %:   0.466336   MPKI: 0.85311
L1D LOAD      ACCESS:   19484009  HIT:   19402388  MISS:      81621  HIT %:    99.5811  MISS %:   0.418913   MPKI: 0.408105
L1D RFO       ACCESS:   13259039  HIT:   13184941  MISS:      74098  HIT %:    99.4412  MISS %:   0.558849   MPKI: 0.37049
L1D PREFETCH  ACCESS:    3844711  HIT:    3829808  MISS:      14903  HIT %:    99.6124  MISS %:   0.387623   MPKI: 0.074515
L1D PREFETCH  REQUESTED:   10279228  ISSUED:   10279189  USEFUL:      13990  USELESS:        921
L1D USEFUL LOAD PREFETCHES:      13990 PREFETCH ISSUED TO LOWER LEVEL:    1025376  ACCURACY: 1.36438
L1D TIMELY PREFETCHES:      13990 LATE PREFETCHES: 220 DROPPED PREFETCHES: 187596
L1D PREFETCHES SAME FILL-ORIGIN LEVEL: 15123 DIFFERENT FILL-ORIGIN LEVEL: 1010253
L1D AVERAGE MISS LATENCY: 80.1008 cycles
L1D RQ	ACCESS:   24428774	FORWARD:          0	MERGED:    4627788	TO_CACHE:   19493440
L1D WQ	ACCESS:   13650915	FORWARD:     307564	MERGED:     117407	TO_CACHE:   13533508
L1D PQ	ACCESS:    5192120	FORWARD:          0	MERGED:     105033	TO_CACHE:    5087069

L1D UNIQUE REGIONS ACCESSED: 0
L1D REGIONS CONFLICTS: 0
L1D Cross Page Prefetch Requests: 525045
L1D Same Page Prefetch Requests: 5203849
L1D ROI Sum of L1D PQ occupancy: 74741158
L1D PREFETCHES PUSHED FROM L2C: 0
L1I TOTAL     ACCESS:   37533674  HIT:   37533525  MISS:        149  HIT %:    99.9996  MISS %: 0.000396977   MPKI: 0.000745
L1I LOAD      ACCESS:   37533674  HIT:   37533525  MISS:        149  HIT %:    99.9996  MISS %: 0.000396977   MPKI: 0.000745
L1I PREFETCH  REQUESTED:          0  ISSUED:          0  USEFUL:          0  USELESS:          0
L1I USEFUL LOAD PREFETCHES:          0 PREFETCH ISSUED TO LOWER LEVEL:          0  ACCURACY: -nan
L1I TIMELY PREFETCHES:          0 LATE PREFETCHES: 0 DROPPED PREFETCHES: 0
L1I PREFETCHES SAME FILL-ORIGIN LEVEL: 0 DIFFERENT FILL-ORIGIN LEVEL: 0
L1I AVERAGE MISS LATENCY: 190.49 cycles
L1I RQ	ACCESS:   54528573	FORWARD:          0	MERGED:   16994865	TO_CACHE:   37533708

BTB TOTAL     ACCESS:   20840505  HIT:   20822598  MISS:      17907  HIT %:    99.9141  MISS %:   0.085924   MPKI: 0.089535
BTB BRANCH_DIRECT_JUMP	ACCESS:    6409318  HIT:    6409168  MISS:        150
BTB BRANCH_INDIRECT	ACCESS:      25122  HIT:       8677  MISS:      16445
BTB BRANCH_CONDITIONAL	ACCESS:   14201921  HIT:   14201603  MISS:        318
BTB BRANCH_DIRECT_CALL	ACCESS:     100457  HIT:     100443  MISS:         14
BTB BRANCH_INDIRECT_CALL	ACCESS:       1615  HIT:       1608  MISS:          7
BTB BRANCH_RETURN	ACCESS:     102072  HIT:     101099  MISS:        973
BTB BRANCH_OTHER ACCESS:          0  HIT:          0  MISS:          0

L2C TOTAL     ACCESS:    1313365  HIT:    1224165  MISS:      89200  HIT %:    93.2083  MISS %:    6.79171   MPKI: 0.446
L2C LOAD      ACCESS:      81550  HIT:      66327  MISS:      15223  HIT %:    81.3329  MISS %:    18.6671   MPKI: 0.076115
L2C DATA LOAD MPKI: 0.07538
L2C INSTRUCTION LOAD MPKI: 0.000735
L2C RFO       ACCESS:      74097  HIT:      24457  MISS:      49640  HIT %:    33.0067  MISS %:    66.9933   MPKI: 0.2482
L2C PREFETCH  ACCESS:    1009286  HIT:     986237  MISS:      23049  HIT %:    97.7163  MISS %:    2.28369   MPKI: 0.115245
L2C DATA PREFETCH MPKI: 0.115245
L2C INSTRUCTION PREFETCH MPKI: 0
L2C WRITEBACK ACCESS:      91758  HIT:      90785  MISS:        973  HIT %:    98.9396  MISS %:     1.0604   MPKI: 0.004865
L2C LOAD TRANSLATION ACCESS:       1352  HIT:       1090  MISS:        262  HIT %:    80.6213  MISS %:    19.3787   MPKI: 0.00131
L2C TRANSLATION FROM L1D PREFETCHER ACCESS:      55322  HIT:      55269  MISS:         53  HIT %:    99.9042  MISS %:  0.0958028   MPKI: 0.000265
L2C PREFETCH  REQUESTED:          0  ISSUED:          0  USEFUL:      11247  USELESS:      13364
L2C USEFUL LOAD PREFETCHES:      11247 PREFETCH ISSUED TO LOWER LEVEL:      23076  ACCURACY: 48.7389
L2C TIMELY PREFETCHES:      11247 LATE PREFETCHES: 27 DROPPED PREFETCHES: 0
L2C PREFETCHES SAME FILL-ORIGIN LEVEL: 14408 DIFFERENT FILL-ORIGIN LEVEL: 0
L2C AVERAGE MISS LATENCY: 149.547 cycles
L2C RQ	ACCESS:     212322	FORWARD:          0	MERGED:          0	TO_CACHE:     212321
L2C WQ	ACCESS:      91758	FORWARD:          1	MERGED:          0	TO_CACHE:      91758
L2C PQ	ACCESS:    1025376	FORWARD:          0	MERGED:         23	TO_CACHE:    1025353

L2C Instructions Evicting Data 147
L2C Translations Evicting Data 314
L2C Data Evicting Data 87150
L2C Instructions Evicting Instructions 0
L2C Translations Evicting Instructions 1
L2C Data Evicting Instructions 201
L2C Instructions Evicting Translations 0
L2C Translations Evicting Translations 0
L2C Data Evicting Translations 317
L2C Dense regions hint from L2: 0
PSCL5 TOTAL     ACCESS:      56674  HIT:      56674  MISS:          0  HIT %:        100  MISS %:          0   MPKI: 0
PSCL5 LOAD TRANSLATION ACCESS:       1352  HIT:       1352  MISS:          0  HIT %:        100  MISS %:          0   MPKI: 0
PSCL5 TRANSLATION FROM L1D PREFETCHER ACCESS:      55322  HIT:      55322  MISS:          0  HIT %:        100  MISS %:          0   MPKI: 0
PSCL5 PREFETCH  REQUESTED:          0  ISSUED:          0  USEFUL:          0  USELESS:          0
PSCL5 USEFUL LOAD PREFETCHES:          0 PREFETCH ISSUED TO LOWER LEVEL:          0  ACCURACY: -nan
PSCL5 TIMELY PREFETCHES:          0 LATE PREFETCHES: 0 DROPPED PREFETCHES: 0
PSCL5 PREFETCHES SAME FILL-ORIGIN LEVEL: 0 DIFFERENT FILL-ORIGIN LEVEL: 0

PSCL4 TOTAL     ACCESS:      56674  HIT:      56674  MISS:          0  HIT %:        100  MISS %:          0   MPKI: 0
PSCL4 LOAD TRANSLATION ACCESS:       1352  HIT:       1352  MISS:          0  HIT %:        100  MISS %:          0   MPKI: 0
PSCL4 TRANSLATION FROM L1D PREFETCHER ACCESS:      55322  HIT:      55322  MISS:          0  HIT %:        100  MISS %:          0   MPKI: 0
PSCL4 PREFETCH  REQUESTED:          0  ISSUED:          0  USEFUL:          0  USELESS:          0
PSCL4 USEFUL LOAD PREFETCHES:          0 PREFETCH ISSUED TO LOWER LEVEL:          0  ACCURACY: -nan
PSCL4 TIMELY PREFETCHES:          0 LATE PREFETCHES: 0 DROPPED PREFETCHES: 0
PSCL4 PREFETCHES SAME FILL-ORIGIN LEVEL: 0 DIFFERENT FILL-ORIGIN LEVEL: 0

PSCL3 TOTAL     ACCESS:      56674  HIT:      56674  MISS:          0  HIT %:        100  MISS %:          0   MPKI: 0
PSCL3 LOAD TRANSLATION ACCESS:       1352  HIT:       1352  MISS:          0  HIT %:        100  MISS %:          0   MPKI: 0
PSCL3 TRANSLATION FROM L1D PREFETCHER ACCESS:      55322  HIT:      55322  MISS:          0  HIT %:        100  MISS %:          0   MPKI: 0
PSCL3 PREFETCH  REQUESTED:          0  ISSUED:          0  USEFUL:          0  USELESS:          0
PSCL3 USEFUL LOAD PREFETCHES:          0 PREFETCH ISSUED TO LOWER LEVEL:          0  ACCURACY: -nan
PSCL3 TIMELY PREFETCHES:          0 LATE PREFETCHES: 0 DROPPED PREFETCHES: 0
PSCL3 PREFETCHES SAME FILL-ORIGIN LEVEL: 0 DIFFERENT FILL-ORIGIN LEVEL: 0

PSCL2 TOTAL     ACCESS:      56674  HIT:      56673  MISS:          1  HIT %:    99.9982  MISS %: 0.00176448   MPKI: 5e-06
PSCL2 LOAD TRANSLATION ACCESS:       1352  HIT:       1351  MISS:          1  HIT %:     99.926  MISS %:  0.0739645   MPKI: 5e-06
PSCL2 TRANSLATION FROM L1D PREFETCHER ACCESS:      55322  HIT:      55322  MISS:          0  HIT %:        100  MISS %:          0   MPKI: 0
PSCL2 PREFETCH  REQUESTED:          0  ISSUED:          0  USEFUL:          0  USELESS:          0
PSCL2 USEFUL LOAD PREFETCHES:          0 PREFETCH ISSUED TO LOWER LEVEL:          0  ACCURACY: -nan
PSCL2 TIMELY PREFETCHES:          0 LATE PREFETCHES: 0 DROPPED PREFETCHES: 0
PSCL2 PREFETCHES SAME FILL-ORIGIN LEVEL: 0 DIFFERENT FILL-ORIGIN LEVEL: 0

LLC TOTAL     ACCESS:     150826  HIT:      71420  MISS:      79406  HIT %:    47.3526  MISS %:    52.6474   MPKI: 0.39703
LLC LOAD      ACCESS:      15208  HIT:       9215  MISS:       5993  HIT %:    60.5931  MISS %:    39.4069   MPKI: 0.029965
LLC RFO       ACCESS:      49628  HIT:        231  MISS:      49397  HIT %:   0.465463  MISS %:    99.5345   MPKI: 0.246985
LLC PREFETCH  ACCESS:      23076  HIT:        679  MISS:      22397  HIT %:    2.94245  MISS %:    97.0575   MPKI: 0.111985
LLC WRITEBACK ACCESS:      62599  HIT:      61177  MISS:       1422  HIT %:    97.7284  MISS %:     2.2716   MPKI: 0.00711
LLC LOAD TRANSLATION ACCESS:        262  HIT:        106  MISS:        156  HIT %:     40.458  MISS %:     59.542   MPKI: 0.00078
LLC TRANSLATION FROM L1D PREFETCHER ACCESS:         53  HIT:         12  MISS:         41  HIT %:    22.6415  MISS %:    77.3585   MPKI: 0.000205
LLC PREFETCH  REQUESTED:          0  ISSUED:          0  USEFUL:       1088  USELESS:      19044
LLC USEFUL LOAD PREFETCHES:       1088 PREFETCH ISSUED TO LOWER LEVEL:      22397  ACCURACY: 4.85779
LLC TIMELY PREFETCHES:       1088 LATE PREFETCHES: 0 DROPPED PREFETCHES: 0
LLC PREFETCHES SAME FILL-ORIGIN LEVEL: 0 DIFFERENT FILL-ORIGIN LEVEL: 0
LLC AVERAGE MISS LATENCY: 134.557 cycles
LLC RQ	ACCESS:      65151	FORWARD:          0	MERGED:          0	TO_CACHE:      65151
LLC WQ	ACCESS:      62599	FORWARD:          0	MERGED:          0	TO_CACHE:      62599
LLC PQ	ACCESS:      23076	FORWARD:          0	MERGED:          0	TO_CACHE:      23076

LLC Dense regions hint to LLC: 0

RAW hits: 1937009
Loads Generated: 26365783
Loads sent to L1D: 24428774
Stores Generated: 13650902
Stores sent to L1D: 13650915
Major fault: 0 Minor fault: 1579
Allocated PAGES: 1579

DRAM Statistics
 CHANNEL 0
 RQ ROW_BUFFER_HIT:      28388  ROW_BUFFER_MISS:      49596
 DBUS_CONGESTED:          1
 WQ ROW_BUFFER_HIT:       6063  ROW_BUFFER_MISS:      34106  FULL:          0

 AVG_CONGESTED_CYCLE: 7
 All warmup complete: 2
Channel 0 Bank busy for read cycles: 0
Channel 0 Bank busy for write cycles: 0
Channel 0
Rank 0
0banks busy for read cycles: 300882758
0banks busy for write cycles: 14452
1banks busy for read cycles: 6349631
1banks busy for write cycles: 1913947
2banks busy for read cycles: 744704
2banks busy for write cycles: 239459
3banks busy for read cycles: 114423
3banks busy for write cycles: 113198
4banks busy for read cycles: 87794
4banks busy for write cycles: 115114
5banks busy for read cycles: 19309
5banks busy for write cycles: 58999
6banks busy for read cycles: 12066
6banks busy for write cycles: 51516
7banks busy for read cycles: 4183
7banks busy for write cycles: 69023
8banks busy for read cycles: 15970
8banks busy for write cycles: 425737

CPU 0 Branch Prediction Accuracy: 83.604% MPKI: 12.2034 Average ROB Occupancy at Mispredict: 17.9807
Branch types
NOT_BRANCH: 178475306 89.2377%
BRANCH_DIRECT_JUMP: 6409318 3.20466%
BRANCH_INDIRECT: 25122 0.012561%
BRANCH_CONDITIONAL: 14885750 7.44287%
BRANCH_DIRECT_CALL: 100457 0.0502285%
BRANCH_INDIRECT_CALL: 1615 0.0008075%
BRANCH_RETURN: 102072 0.051036%
BRANCH_OTHER: 0 0%

DRAM PAGES: 1048576
Allocated PAGES: 1579
