 (TOTAL 523355 bits 511 Kbits) 
*** ChampSim Multicore Out-of-Order Simulator ***

Warmup Instructions: 50000000
Simulation Instructions: 200000000
Number of CPUs: 1
LLC sets: 2048
LLC ways: 16
Off-chip DRAM Size: 4096 MB Channels: 1 Width: 64-bit Data Rate: 6400 MT/s
argv[0]: ./ChampSim/Berti/bin/tagescl-no-vberti-no-no-no-no-no-lru-lru-lru-srrip-drrip-lru-lru-lru-1core-no
argv[1]: -warmup_instructions
argv[2]: 50000000
argv[3]: -simulation_instructions
argv[4]: 200000000
argv[5]: -traces
argv[6]: traces/spec2k17_ten/620.omnetpp_s-141B.champsimtrace.xz
CPU 0 runs traces/spec2k17_ten/620.omnetpp_s-141B.champsimtrace.xz
.xz
CPU 0 Tage branch predictor
BTB has LRU replacement policy
ITLB has LRU replacement policy
DTLB has LRU replacement policy
STLB has LRU replacement policy
L1I has LRU replacement policy
History Sets: 8
History Ways: 16
BERTI Size: 16
BERTI Stride Size: 16
L1D has LRU replacement policy
Initialize SRRIP state for L2C
Initialize DRRIP state for LLC
Heartbeat CPU 0 instructions: 10000001 cycles: 3913658 heartbeat IPC: 2.55515 cumulative IPC: 2.55515 (Simulation time: 0 hr 12 min 53 sec) 
Heartbeat CPU 0 instructions: 20000003 cycles: 7840284 heartbeat IPC: 2.54672 cumulative IPC: 2.55093 (Simulation time: 0 hr 21 min 48 sec) 
Heartbeat CPU 0 instructions: 30000000 cycles: 11771279 heartbeat IPC: 2.54388 cumulative IPC: 2.54858 (Simulation time: 0 hr 34 min 2 sec) 
Heartbeat CPU 0 instructions: 40000001 cycles: 15691023 heartbeat IPC: 2.55119 cumulative IPC: 2.54923 (Simulation time: 0 hr 47 min 12 sec) 
Heartbeat CPU 0 instructions: 50000003 cycles: 19624466 heartbeat IPC: 2.5423 cumulative IPC: 2.54784 (Simulation time: 0 hr 59 min 22 sec) 

Warmup complete CPU 0 instructions: 50000003 cycles: 19624466 (Simulation time: 0 hr 59 min 22 sec) 

Heartbeat CPU 0 instructions: 60000001 cycles: 63345595 heartbeat IPC: 0.228722 cumulative IPC: 0.228722 (Simulation time: 1 hr 12 min 57 sec) 
Heartbeat CPU 0 instructions: 70000000 cycles: 107547512 heartbeat IPC: 0.226235 cumulative IPC: 0.227472 (Simulation time: 1 hr 26 min 37 sec) 
Heartbeat CPU 0 instructions: 80000003 cycles: 151387176 heartbeat IPC: 0.228104 cumulative IPC: 0.227682 (Simulation time: 1 hr 40 min 3 sec) 
Heartbeat CPU 0 instructions: 90000003 cycles: 195470351 heartbeat IPC: 0.226844 cumulative IPC: 0.227472 (Simulation time: 1 hr 54 min 43 sec) 
Heartbeat CPU 0 instructions: 100000003 cycles: 239144342 heartbeat IPC: 0.228969 cumulative IPC: 0.22777 (Simulation time: 2 hr 8 min 8 sec) 
Heartbeat CPU 0 instructions: 110000000 cycles: 283034216 heartbeat IPC: 0.227843 cumulative IPC: 0.227782 (Simulation time: 2 hr 20 min 23 sec) 
Heartbeat CPU 0 instructions: 120000000 cycles: 326769622 heartbeat IPC: 0.228648 cumulative IPC: 0.227905 (Simulation time: 2 hr 34 min 4 sec) 
Heartbeat CPU 0 instructions: 130000000 cycles: 370479040 heartbeat IPC: 0.228784 cumulative IPC: 0.228015 (Simulation time: 2 hr 48 min 19 sec) 
Heartbeat CPU 0 instructions: 140000000 cycles: 414297957 heartbeat IPC: 0.228212 cumulative IPC: 0.228037 (Simulation time: 3 hr 1 min 50 sec) 
Heartbeat CPU 0 instructions: 150000003 cycles: 458515828 heartbeat IPC: 0.226153 cumulative IPC: 0.227847 (Simulation time: 3 hr 15 min 41 sec) 
Heartbeat CPU 0 instructions: 160000001 cycles: 502365208 heartbeat IPC: 0.228053 cumulative IPC: 0.227866 (Simulation time: 3 hr 28 min 50 sec) 
Heartbeat CPU 0 instructions: 170000000 cycles: 545873553 heartbeat IPC: 0.229841 cumulative IPC: 0.228029 (Simulation time: 3 hr 42 min 38 sec) 
Heartbeat CPU 0 instructions: 180000000 cycles: 589464890 heartbeat IPC: 0.229403 cumulative IPC: 0.228134 (Simulation time: 3 hr 55 min 37 sec) 
Heartbeat CPU 0 instructions: 190000000 cycles: 632994272 heartbeat IPC: 0.22973 cumulative IPC: 0.228247 (Simulation time: 4 hr 6 min 38 sec) 
Heartbeat CPU 0 instructions: 200000002 cycles: 677395393 heartbeat IPC: 0.22522 cumulative IPC: 0.228043 (Simulation time: 4 hr 15 min 53 sec) 
Heartbeat CPU 0 instructions: 210000000 cycles: 721416101 heartbeat IPC: 0.227166 cumulative IPC: 0.227988 (Simulation time: 4 hr 24 min 38 sec) 
Heartbeat CPU 0 instructions: 220000000 cycles: 765676876 heartbeat IPC: 0.225934 cumulative IPC: 0.227866 (Simulation time: 4 hr 32 min 45 sec) 
Heartbeat CPU 0 instructions: 230000001 cycles: 809518848 heartbeat IPC: 0.228092 cumulative IPC: 0.227879 (Simulation time: 4 hr 38 min 48 sec) 
Heartbeat CPU 0 instructions: 240000001 cycles: 853437623 heartbeat IPC: 0.227693 cumulative IPC: 0.227869 (Simulation time: 4 hr 43 min 19 sec) 
Heartbeat CPU 0 instructions: 250000000 cycles: 896696331 heartbeat IPC: 0.231167 cumulative IPC: 0.228031 (Simulation time: 4 hr 47 min 17 sec) 
Finished CPU 0 instructions: 200000001 cycles: 877071866 cumulative IPC: 0.228031 (Simulation time: 4 hr 47 min 17 sec) 

ChampSim completed all CPUs

Region of Interest Statistics

CPU 0 cumulative IPC: 0.228031 instructions: 200000001 cycles: 877071866
ITLB TOTAL     ACCESS:   33715049  HIT:   33424911  MISS:     290138  HIT %:    99.1394  MISS %:   0.860559   MPKI: 1.45069
ITLB LOAD TRANSLATION ACCESS:   33715049  HIT:   33424911  MISS:     290138  HIT %:    99.1394  MISS %:   0.860559   MPKI: 1.45069
ITLB PREFETCH  REQUESTED:          0  ISSUED:          0  USEFUL:          0  USELESS:          0
ITLB USEFUL LOAD PREFETCHES:          0 PREFETCH ISSUED TO LOWER LEVEL:          0  ACCURACY: -nan
ITLB TIMELY PREFETCHES:          0 LATE PREFETCHES: 0 DROPPED PREFETCHES: 0
ITLB PREFETCHES SAME FILL-ORIGIN LEVEL: 0 DIFFERENT FILL-ORIGIN LEVEL: 0
ITLB AVERAGE MISS LATENCY: 9.67193 cycles
ITLB RQ	ACCESS:   38990563	FORWARD:          0	MERGED:    5218296	TO_CACHE:   33772267

DTLB TOTAL     ACCESS:   76714941  HIT:   72554151  MISS:    4160790  HIT %:    94.5763  MISS %:     5.4237   MPKI: 20.8039
DTLB LOAD TRANSLATION ACCESS:   76714941  HIT:   72554151  MISS:    4160790  HIT %:    94.5763  MISS %:     5.4237   MPKI: 20.8039
DTLB PREFETCH  REQUESTED:          0  ISSUED:          0  USEFUL:          0  USELESS:          0
DTLB USEFUL LOAD PREFETCHES:          0 PREFETCH ISSUED TO LOWER LEVEL:          0  ACCURACY: -nan
DTLB TIMELY PREFETCHES:          0 LATE PREFETCHES: 0 DROPPED PREFETCHES: 0
DTLB PREFETCHES SAME FILL-ORIGIN LEVEL: 0 DIFFERENT FILL-ORIGIN LEVEL: 0
DTLB AVERAGE MISS LATENCY: 24.4745 cycles
DTLB RQ	ACCESS:   87090893	FORWARD:          0	MERGED:   10270745	TO_CACHE:   76820148

STLB TOTAL     ACCESS:    4496178  HIT:    3517752  MISS:     978426  HIT %:    78.2387  MISS %:    21.7613   MPKI: 4.89213
STLB LOAD TRANSLATION ACCESS:    4450928  HIT:    3483336  MISS:     967592  HIT %:    78.2609  MISS %:    21.7391   MPKI: 4.83796
STLB TRANSLATION FROM L1D PREFETCHER ACCESS:      45250  HIT:      34416  MISS:      10834  HIT %:    76.0575  MISS %:    23.9425   MPKI: 0.05417
STLB PREFETCH  REQUESTED:          0  ISSUED:          0  USEFUL:       6581  USELESS:       4256
STLB USEFUL LOAD PREFETCHES:       6581 PREFETCH ISSUED TO LOWER LEVEL:          0  ACCURACY: inf
STLB TIMELY PREFETCHES:       6581 LATE PREFETCHES: 0 DROPPED PREFETCHES: 10975
STLB PREFETCHES SAME FILL-ORIGIN LEVEL: 0 DIFFERENT FILL-ORIGIN LEVEL: 0
STLB AVERAGE MISS LATENCY: 66.2826 cycles
STLB RQ	ACCESS:    4543897	FORWARD:          0	MERGED:      36685	TO_CACHE:    4507212

STLB Hit, L1D data hit: 0
STLB Hit, L2C data hit: 0
STLB Hit, LLC data hit: 0
STLB Hit, LLC data miss: 0
STLB STLB hints to L2: 0
L1D TOTAL     ACCESS:   85867558  HIT:   82159425  MISS:    3708133  HIT %:    95.6816  MISS %:    4.31843   MPKI: 18.5407
L1D LOAD      ACCESS:   50009725  HIT:   46792771  MISS:    3216954  HIT %:    93.5673  MISS %:    6.43266   MPKI: 16.0848
L1D RFO       ACCESS:   35838626  HIT:   35355184  MISS:     483442  HIT %:    98.6511  MISS %:    1.34894   MPKI: 2.41721
L1D PREFETCH  ACCESS:      19207  HIT:      11470  MISS:       7737  HIT %:    59.7178  MISS %:    40.2822   MPKI: 0.038685
L1D PREFETCH  REQUESTED:     186797  ISSUED:     186797  USEFUL:       3643  USELESS:       4094
L1D USEFUL LOAD PREFETCHES:       3643 PREFETCH ISSUED TO LOWER LEVEL:      68365  ACCURACY: 5.32875
L1D TIMELY PREFETCHES:       3643 LATE PREFETCHES: 5 DROPPED PREFETCHES: 12607
L1D PREFETCHES SAME FILL-ORIGIN LEVEL: 7742 DIFFERENT FILL-ORIGIN LEVEL: 60623
L1D AVERAGE MISS LATENCY: 131.28 cycles
L1D RQ	ACCESS:   63351210	FORWARD:          0	MERGED:   10275760	TO_CACHE:   50387675
L1D WQ	ACCESS:   37145107	FORWARD:    2687775	MERGED:     441889	TO_CACHE:   36703218
L1D PQ	ACCESS:      93828	FORWARD:          0	MERGED:        859	TO_CACHE:      92969

L1D UNIQUE REGIONS ACCESSED: 0
L1D REGIONS CONFLICTS: 0
L1D Cross Page Prefetch Requests: 77867
L1D Same Page Prefetch Requests: 59568
L1D ROI Sum of L1D PQ occupancy: 2444506
L1D PREFETCHES PUSHED FROM L2C: 0
L1I TOTAL     ACCESS:   38944476  HIT:   38823538  MISS:     120938  HIT %:    99.6895  MISS %:    0.31054   MPKI: 0.60469
L1I LOAD      ACCESS:   38944476  HIT:   38823538  MISS:     120938  HIT %:    99.6895  MISS %:    0.31054   MPKI: 0.60469
L1I PREFETCH  REQUESTED:          0  ISSUED:          0  USEFUL:          0  USELESS:          0
L1I USEFUL LOAD PREFETCHES:          0 PREFETCH ISSUED TO LOWER LEVEL:          0  ACCURACY: -nan
L1I TIMELY PREFETCHES:          0 LATE PREFETCHES: 0 DROPPED PREFETCHES: 0
L1I PREFETCHES SAME FILL-ORIGIN LEVEL: 0 DIFFERENT FILL-ORIGIN LEVEL: 0
L1I AVERAGE MISS LATENCY: 24.7312 cycles
L1I RQ	ACCESS:   57634849	FORWARD:          0	MERGED:   18644286	TO_CACHE:   38990563

BTB TOTAL     ACCESS:   32873212  HIT:   30947949  MISS:    1925263  HIT %:    94.1434  MISS %:    5.85663   MPKI: 9.62631
BTB BRANCH_DIRECT_JUMP	ACCESS:    2330259  HIT:    2330115  MISS:        144
BTB BRANCH_INDIRECT	ACCESS:     674227  HIT:     571148  MISS:     103079
BTB BRANCH_CONDITIONAL	ACCESS:   17721647  HIT:   17721118  MISS:        529
BTB BRANCH_DIRECT_CALL	ACCESS:    3701835  HIT:    3701543  MISS:        292
BTB BRANCH_INDIRECT_CALL	ACCESS:    2371706  HIT:    2363088  MISS:       8618
BTB BRANCH_RETURN	ACCESS:    6073538  HIT:    4260937  MISS:    1812601
BTB BRANCH_OTHER ACCESS:          0  HIT:          0  MISS:          0

L2C TOTAL     ACCESS:    7126770  HIT:    3708729  MISS:    3418041  HIT %:    52.0394  MISS %:    47.9606   MPKI: 17.0902
L2C LOAD      ACCESS:    3337816  HIT:     971534  MISS:    2366282  HIT %:    29.1069  MISS %:    70.8931   MPKI: 11.8314
L2C DATA LOAD MPKI: 11.7407
L2C INSTRUCTION LOAD MPKI: 0.09075
L2C RFO       ACCESS:     483436  HIT:     124610  MISS:     358826  HIT %:    25.7759  MISS %:    74.2241   MPKI: 1.79413
L2C PREFETCH  ACCESS:      68273  HIT:      15199  MISS:      53074  HIT %:    22.2621  MISS %:    77.7379   MPKI: 0.26537
L2C DATA PREFETCH MPKI: 0.26537
L2C INSTRUCTION PREFETCH MPKI: 0
L2C WRITEBACK ACCESS:    1816249  HIT:    1779611  MISS:      36638  HIT %:    97.9828  MISS %:    2.01723   MPKI: 0.18319
L2C LOAD TRANSLATION ACCESS:    1388129  HIT:     786903  MISS:     601226  HIT %:     56.688  MISS %:     43.312   MPKI: 3.00613
L2C TRANSLATION FROM L1D PREFETCHER ACCESS:      32867  HIT:      30872  MISS:       1995  HIT %:    93.9301  MISS %:    6.06992   MPKI: 0.009975
L2C PREFETCH  REQUESTED:          0  ISSUED:          0  USEFUL:      11631  USELESS:      43490
L2C USEFUL LOAD PREFETCHES:      11631 PREFETCH ISSUED TO LOWER LEVEL:      53084  ACCURACY: 21.9106
L2C TIMELY PREFETCHES:      11631 LATE PREFETCHES: 10 DROPPED PREFETCHES: 0
L2C PREFETCHES SAME FILL-ORIGIN LEVEL: 48726 DIFFERENT FILL-ORIGIN LEVEL: 0
L2C AVERAGE MISS LATENCY: 139.734 cycles
L2C RQ	ACCESS:    5242324	FORWARD:          0	MERGED:          0	TO_CACHE:    5242248
L2C WQ	ACCESS:    1816249	FORWARD:         76	MERGED:          0	TO_CACHE:    1816249
L2C PQ	ACCESS:      68365	FORWARD:          0	MERGED:          0	TO_CACHE:      68365

L2C Instructions Evicting Data 14770
L2C Translations Evicting Data 492468
L2C Data Evicting Data 2258166
L2C Instructions Evicting Instructions 352
L2C Translations Evicting Instructions 3066
L2C Data Evicting Instructions 14449
L2C Instructions Evicting Translations 3028
L2C Translations Evicting Translations 107687
L2C Data Evicting Translations 487417
L2C Dense regions hint from L2: 0
PSCL5 TOTAL     ACCESS:     989401  HIT:     989401  MISS:          0  HIT %:        100  MISS %:          0   MPKI: 0
PSCL5 LOAD TRANSLATION ACCESS:     967592  HIT:     967592  MISS:          0  HIT %:        100  MISS %:          0   MPKI: 0
PSCL5 TRANSLATION FROM L1D PREFETCHER ACCESS:      21809  HIT:      21809  MISS:          0  HIT %:        100  MISS %:          0   MPKI: 0
PSCL5 PREFETCH  REQUESTED:          0  ISSUED:          0  USEFUL:          0  USELESS:          0
PSCL5 USEFUL LOAD PREFETCHES:          0 PREFETCH ISSUED TO LOWER LEVEL:          0  ACCURACY: -nan
PSCL5 TIMELY PREFETCHES:          0 LATE PREFETCHES: 0 DROPPED PREFETCHES: 0
PSCL5 PREFETCHES SAME FILL-ORIGIN LEVEL: 0 DIFFERENT FILL-ORIGIN LEVEL: 0

PSCL4 TOTAL     ACCESS:     989401  HIT:     989401  MISS:          0  HIT %:        100  MISS %:          0   MPKI: 0
PSCL4 LOAD TRANSLATION ACCESS:     967592  HIT:     967592  MISS:          0  HIT %:        100  MISS %:          0   MPKI: 0
PSCL4 TRANSLATION FROM L1D PREFETCHER ACCESS:      21809  HIT:      21809  MISS:          0  HIT %:        100  MISS %:          0   MPKI: 0
PSCL4 PREFETCH  REQUESTED:          0  ISSUED:          0  USEFUL:          0  USELESS:          0
PSCL4 USEFUL LOAD PREFETCHES:          0 PREFETCH ISSUED TO LOWER LEVEL:          0  ACCURACY: -nan
PSCL4 TIMELY PREFETCHES:          0 LATE PREFETCHES: 0 DROPPED PREFETCHES: 0
PSCL4 PREFETCHES SAME FILL-ORIGIN LEVEL: 0 DIFFERENT FILL-ORIGIN LEVEL: 0

PSCL3 TOTAL     ACCESS:     989401  HIT:     989401  MISS:          0  HIT %:        100  MISS %:          0   MPKI: 0
PSCL3 LOAD TRANSLATION ACCESS:     967592  HIT:     967592  MISS:          0  HIT %:        100  MISS %:          0   MPKI: 0
PSCL3 TRANSLATION FROM L1D PREFETCHER ACCESS:      21809  HIT:      21809  MISS:          0  HIT %:        100  MISS %:          0   MPKI: 0
PSCL3 PREFETCH  REQUESTED:          0  ISSUED:          0  USEFUL:          0  USELESS:          0
PSCL3 USEFUL LOAD PREFETCHES:          0 PREFETCH ISSUED TO LOWER LEVEL:          0  ACCURACY: -nan
PSCL3 TIMELY PREFETCHES:          0 LATE PREFETCHES: 0 DROPPED PREFETCHES: 0
PSCL3 PREFETCHES SAME FILL-ORIGIN LEVEL: 0 DIFFERENT FILL-ORIGIN LEVEL: 0

PSCL2 TOTAL     ACCESS:     979184  HIT:     557719  MISS:     421465  HIT %:    56.9575  MISS %:    43.0425   MPKI: 2.10732
PSCL2 LOAD TRANSLATION ACCESS:     968520  HIT:     547055  MISS:     421465  HIT %:    56.4836  MISS %:    43.5164   MPKI: 2.10732
PSCL2 TRANSLATION FROM L1D PREFETCHER ACCESS:      10664  HIT:      10664  MISS:          0  HIT %:        100  MISS %:          0   MPKI: 0
PSCL2 PREFETCH  REQUESTED:          0  ISSUED:          0  USEFUL:          0  USELESS:          0
PSCL2 USEFUL LOAD PREFETCHES:          0 PREFETCH ISSUED TO LOWER LEVEL:          0  ACCURACY: -nan
PSCL2 TIMELY PREFETCHES:          0 LATE PREFETCHES: 0 DROPPED PREFETCHES: 0
PSCL2 PREFETCHES SAME FILL-ORIGIN LEVEL: 0 DIFFERENT FILL-ORIGIN LEVEL: 0

LLC TOTAL     ACCESS:    4664851  HIT:    2349995  MISS:    2314856  HIT %:    50.3766  MISS %:    49.6234   MPKI: 11.5743
LLC LOAD      ACCESS:    2366270  HIT:     510826  MISS:    1855444  HIT %:    21.5878  MISS %:    78.4122   MPKI: 9.27722
LLC RFO       ACCESS:     358825  HIT:     105849  MISS:     252976  HIT %:    29.4988  MISS %:    70.5012   MPKI: 1.26488
LLC PREFETCH  ACCESS:      53084  HIT:       2718  MISS:      50366  HIT %:    5.12019  MISS %:    94.8798   MPKI: 0.25183
LLC WRITEBACK ACCESS:    1283451  HIT:    1229619  MISS:      53832  HIT %:    95.8057  MISS %:    4.19432   MPKI: 0.26916
LLC LOAD TRANSLATION ACCESS:     601226  HIT:     499531  MISS:     101695  HIT %:    83.0854  MISS %:    16.9146   MPKI: 0.508475
LLC TRANSLATION FROM L1D PREFETCHER ACCESS:       1995  HIT:       1452  MISS:        543  HIT %:     72.782  MISS %:     27.218   MPKI: 0.002715
LLC PREFETCH  REQUESTED:          0  ISSUED:          0  USEFUL:       1280  USELESS:      49986
LLC USEFUL LOAD PREFETCHES:       1280 PREFETCH ISSUED TO LOWER LEVEL:      50366  ACCURACY: 2.5414
LLC TIMELY PREFETCHES:       1280 LATE PREFETCHES: 0 DROPPED PREFETCHES: 0
LLC PREFETCHES SAME FILL-ORIGIN LEVEL: 0 DIFFERENT FILL-ORIGIN LEVEL: 0
LLC AVERAGE MISS LATENCY: 162.489 cycles
LLC RQ	ACCESS:    3328319	FORWARD:          0	MERGED:          0	TO_CACHE:    3328316
LLC WQ	ACCESS:    1283451	FORWARD:          3	MERGED:          0	TO_CACHE:    1283451
LLC PQ	ACCESS:      53084	FORWARD:          0	MERGED:          0	TO_CACHE:      53084

LLC Dense regions hint to LLC: 0

RAW hits: 3521326
Loads Generated: 66872536
Loads sent to L1D: 63351210
Stores Generated: 37145093
Stores sent to L1D: 37145107
Major fault: 0 Minor fault: 53031
Allocated PAGES: 53031

DRAM Statistics
 CHANNEL 0
 RQ ROW_BUFFER_HIT:     139504  ROW_BUFFER_MISS:    2121516
 DBUS_CONGESTED:        387
 WQ ROW_BUFFER_HIT:     255024  ROW_BUFFER_MISS:     739714  FULL:          0

 AVG_CONGESTED_CYCLE: 5
 All warmup complete: 2
Channel 0 Bank busy for read cycles: 0
Channel 0 Bank busy for write cycles: 0
Channel 0
Rank 0
0banks busy for read cycles: 506626520
0banks busy for write cycles: 516519
1banks busy for read cycles: 177768124
1banks busy for write cycles: 81335620
2banks busy for read cycles: 47147968
2banks busy for write cycles: 32433998
3banks busy for read cycles: 11722159
3banks busy for write cycles: 11023279
4banks busy for read cycles: 3706258
4banks busy for write cycles: 3236678
5banks busy for read cycles: 306768
5banks busy for write cycles: 789536
6banks busy for read cycles: 118340
6banks busy for write cycles: 177827
7banks busy for read cycles: 79549
7banks busy for write cycles: 34297
8banks busy for read cycles: 43551
8banks busy for write cycles: 4876

CPU 0 Branch Prediction Accuracy: 97.6558% MPKI: 3.14554 Average ROB Occupancy at Mispredict: 39.1521
Branch types
NOT_BRANCH: 158010834 79.0054%
BRANCH_DIRECT_JUMP: 2330259 1.16513%
BRANCH_INDIRECT: 674227 0.337113%
BRANCH_CONDITIONAL: 26837260 13.4186%
BRANCH_DIRECT_CALL: 3701835 1.85092%
BRANCH_INDIRECT_CALL: 2371706 1.18585%
BRANCH_RETURN: 6073538 3.03677%
BRANCH_OTHER: 0 0%

DRAM PAGES: 1048576
Allocated PAGES: 53031
