 (TOTAL 523355 bits 511 Kbits) 
*** ChampSim Multicore Out-of-Order Simulator ***

Warmup Instructions: 50000000
Simulation Instructions: 200000000
Number of CPUs: 1
LLC sets: 2048
LLC ways: 16
Off-chip DRAM Size: 4096 MB Channels: 1 Width: 64-bit Data Rate: 6400 MT/s
argv[0]: ./ChampSim/Berti/bin/tagescl-no-vberti-no-no-no-no-no-lru-lru-lru-srrip-drrip-lru-lru-lru-1core-no
argv[1]: -warmup_instructions
argv[2]: 50000000
argv[3]: -simulation_instructions
argv[4]: 200000000
argv[5]: -traces
argv[6]: traces/spec2k17_ten/620.omnetpp_s-874B.champsimtrace.xz
CPU 0 runs traces/spec2k17_ten/620.omnetpp_s-874B.champsimtrace.xz
.xz
CPU 0 Tage branch predictor
BTB has LRU replacement policy
ITLB has LRU replacement policy
DTLB has LRU replacement policy
STLB has LRU replacement policy
L1I has LRU replacement policy
History Sets: 8
History Ways: 16
BERTI Size: 16
BERTI Stride Size: 16
L1D has LRU replacement policy
Initialize SRRIP state for L2C
Initialize DRRIP state for LLC
Heartbeat CPU 0 instructions: 10000001 cycles: 3905225 heartbeat IPC: 2.56067 cumulative IPC: 2.56067 (Simulation time: 0 hr 14 min 34 sec) 
Heartbeat CPU 0 instructions: 20000001 cycles: 7806511 heartbeat IPC: 2.56326 cumulative IPC: 2.56196 (Simulation time: 0 hr 27 min 1 sec) 
Heartbeat CPU 0 instructions: 30000003 cycles: 11702940 heartbeat IPC: 2.56645 cumulative IPC: 2.56346 (Simulation time: 0 hr 40 min 23 sec) 
Heartbeat CPU 0 instructions: 40000001 cycles: 15608587 heartbeat IPC: 2.56039 cumulative IPC: 2.56269 (Simulation time: 0 hr 51 min 32 sec) 
Heartbeat CPU 0 instructions: 50000000 cycles: 19515678 heartbeat IPC: 2.55945 cumulative IPC: 2.56204 (Simulation time: 1 hr 0 min 46 sec) 

Warmup complete CPU 0 instructions: 50000004 cycles: 19515679 (Simulation time: 1 hr 0 min 46 sec) 

Heartbeat CPU 0 instructions: 60000001 cycles: 62053703 heartbeat IPC: 0.235084 cumulative IPC: 0.235084 (Simulation time: 1 hr 15 min 3 sec) 
Heartbeat CPU 0 instructions: 70000001 cycles: 104172576 heartbeat IPC: 0.237423 cumulative IPC: 0.236248 (Simulation time: 1 hr 28 min 32 sec) 
Heartbeat CPU 0 instructions: 80000002 cycles: 146488573 heartbeat IPC: 0.236317 cumulative IPC: 0.236271 (Simulation time: 1 hr 42 min 36 sec) 
Heartbeat CPU 0 instructions: 90000001 cycles: 188288335 heartbeat IPC: 0.239236 cumulative IPC: 0.237005 (Simulation time: 1 hr 55 min 44 sec) 
Heartbeat CPU 0 instructions: 100000000 cycles: 230934592 heartbeat IPC: 0.234487 cumulative IPC: 0.236497 (Simulation time: 2 hr 9 min 9 sec) 
Heartbeat CPU 0 instructions: 110000000 cycles: 272881683 heartbeat IPC: 0.238396 cumulative IPC: 0.236812 (Simulation time: 2 hr 20 min 37 sec) 
Heartbeat CPU 0 instructions: 120000003 cycles: 315164265 heartbeat IPC: 0.236504 cumulative IPC: 0.236768 (Simulation time: 2 hr 33 min 24 sec) 
Heartbeat CPU 0 instructions: 130000000 cycles: 357507982 heartbeat IPC: 0.236162 cumulative IPC: 0.236692 (Simulation time: 2 hr 46 min 32 sec) 
Heartbeat CPU 0 instructions: 140000001 cycles: 399687023 heartbeat IPC: 0.237085 cumulative IPC: 0.236735 (Simulation time: 2 hr 59 min 48 sec) 
Heartbeat CPU 0 instructions: 150000002 cycles: 442121276 heartbeat IPC: 0.235659 cumulative IPC: 0.236627 (Simulation time: 3 hr 12 min 52 sec) 
Heartbeat CPU 0 instructions: 160000000 cycles: 484787685 heartbeat IPC: 0.234376 cumulative IPC: 0.236421 (Simulation time: 3 hr 26 min 44 sec) 
Heartbeat CPU 0 instructions: 170000000 cycles: 526787672 heartbeat IPC: 0.238095 cumulative IPC: 0.236559 (Simulation time: 3 hr 40 min 26 sec) 
Heartbeat CPU 0 instructions: 180000000 cycles: 569057416 heartbeat IPC: 0.236576 cumulative IPC: 0.236561 (Simulation time: 3 hr 53 min 12 sec) 
Heartbeat CPU 0 instructions: 190000003 cycles: 611310636 heartbeat IPC: 0.236668 cumulative IPC: 0.236568 (Simulation time: 4 hr 3 min 46 sec) 
Heartbeat CPU 0 instructions: 200000000 cycles: 653518968 heartbeat IPC: 0.23692 cumulative IPC: 0.236592 (Simulation time: 4 hr 13 min 28 sec) 
Heartbeat CPU 0 instructions: 210000000 cycles: 695939514 heartbeat IPC: 0.235735 cumulative IPC: 0.236538 (Simulation time: 4 hr 22 min 4 sec) 
Heartbeat CPU 0 instructions: 220000000 cycles: 737969658 heartbeat IPC: 0.237924 cumulative IPC: 0.236619 (Simulation time: 4 hr 29 min 36 sec) 
Heartbeat CPU 0 instructions: 230000002 cycles: 779912005 heartbeat IPC: 0.238423 cumulative IPC: 0.236719 (Simulation time: 4 hr 36 min 16 sec) 
Heartbeat CPU 0 instructions: 240000001 cycles: 822405064 heartbeat IPC: 0.235333 cumulative IPC: 0.236645 (Simulation time: 4 hr 41 min 15 sec) 
Heartbeat CPU 0 instructions: 250000000 cycles: 864714924 heartbeat IPC: 0.236352 cumulative IPC: 0.236631 (Simulation time: 4 hr 45 min 19 sec) 
Finished CPU 0 instructions: 200000000 cycles: 845199246 cumulative IPC: 0.236631 (Simulation time: 4 hr 45 min 19 sec) 

ChampSim completed all CPUs

Region of Interest Statistics

CPU 0 cumulative IPC: 0.236631 instructions: 200000000 cycles: 845199246
ITLB TOTAL     ACCESS:   33646018  HIT:   33364809  MISS:     281209  HIT %:    99.1642  MISS %:   0.835787   MPKI: 1.40604
ITLB LOAD TRANSLATION ACCESS:   33646018  HIT:   33364809  MISS:     281209  HIT %:    99.1642  MISS %:   0.835787   MPKI: 1.40604
ITLB PREFETCH  REQUESTED:          0  ISSUED:          0  USEFUL:          0  USELESS:          0
ITLB USEFUL LOAD PREFETCHES:          0 PREFETCH ISSUED TO LOWER LEVEL:          0  ACCURACY: -nan
ITLB TIMELY PREFETCHES:          0 LATE PREFETCHES: 0 DROPPED PREFETCHES: 0
ITLB PREFETCHES SAME FILL-ORIGIN LEVEL: 0 DIFFERENT FILL-ORIGIN LEVEL: 0
ITLB AVERAGE MISS LATENCY: 9.86354 cycles
ITLB RQ	ACCESS:   38841905	FORWARD:          0	MERGED:    5145070	TO_CACHE:   33696835

DTLB TOTAL     ACCESS:   76223390  HIT:   72414781  MISS:    3808609  HIT %:    95.0034  MISS %:    4.99664   MPKI: 19.043
DTLB LOAD TRANSLATION ACCESS:   76223390  HIT:   72414781  MISS:    3808609  HIT %:    95.0034  MISS %:    4.99664   MPKI: 19.043
DTLB PREFETCH  REQUESTED:          0  ISSUED:          0  USEFUL:          0  USELESS:          0
DTLB USEFUL LOAD PREFETCHES:          0 PREFETCH ISSUED TO LOWER LEVEL:          0  ACCURACY: -nan
DTLB TIMELY PREFETCHES:          0 LATE PREFETCHES: 0 DROPPED PREFETCHES: 0
DTLB PREFETCHES SAME FILL-ORIGIN LEVEL: 0 DIFFERENT FILL-ORIGIN LEVEL: 0
DTLB AVERAGE MISS LATENCY: 23.0896 cycles
DTLB RQ	ACCESS:   86477845	FORWARD:          0	MERGED:   10178372	TO_CACHE:   76299473

STLB TOTAL     ACCESS:    4159146  HIT:    3292635  MISS:     866511  HIT %:    79.1661  MISS %:    20.8339   MPKI: 4.33256
STLB LOAD TRANSLATION ACCESS:    4089818  HIT:    3240280  MISS:     849538  HIT %:     79.228  MISS %:     20.772   MPKI: 4.24769
STLB TRANSLATION FROM L1D PREFETCHER ACCESS:      69328  HIT:      52355  MISS:      16973  HIT %:    75.5178  MISS %:    24.4822   MPKI: 0.084865
STLB PREFETCH  REQUESTED:          0  ISSUED:          0  USEFUL:      11176  USELESS:       5791
STLB USEFUL LOAD PREFETCHES:      11176 PREFETCH ISSUED TO LOWER LEVEL:          0  ACCURACY: inf
STLB TIMELY PREFETCHES:      11176 LATE PREFETCHES: 1 DROPPED PREFETCHES: 34242
STLB PREFETCHES SAME FILL-ORIGIN LEVEL: 0 DIFFERENT FILL-ORIGIN LEVEL: 0
STLB AVERAGE MISS LATENCY: 62.9001 cycles
STLB RQ	ACCESS:    4244074	FORWARD:          0	MERGED:      50424	TO_CACHE:    4193650

STLB Hit, L1D data hit: 0
STLB Hit, L2C data hit: 0
STLB Hit, LLC data hit: 0
STLB Hit, LLC data miss: 0
STLB STLB hints to L2: 0
L1D TOTAL     ACCESS:   85474128  HIT:   81829414  MISS:    3644714  HIT %:    95.7359  MISS %:    4.26411   MPKI: 18.2236
L1D LOAD      ACCESS:   49476046  HIT:   46328626  MISS:    3147420  HIT %:    93.6385  MISS %:     6.3615   MPKI: 15.7371
L1D RFO       ACCESS:   35979087  HIT:   35488088  MISS:     490999  HIT %:    98.6353  MISS %:    1.36468   MPKI: 2.45499
L1D PREFETCH  ACCESS:      18995  HIT:      12700  MISS:       6295  HIT %:    66.8597  MISS %:    33.1403   MPKI: 0.031475
L1D PREFETCH  REQUESTED:     309228  ISSUED:     309228  USEFUL:       4088  USELESS:       2206
L1D USEFUL LOAD PREFETCHES:       4088 PREFETCH ISSUED TO LOWER LEVEL:      98756  ACCURACY: 4.1395
L1D TIMELY PREFETCHES:       4088 LATE PREFETCHES: 1 DROPPED PREFETCHES: 42581
L1D PREFETCHES SAME FILL-ORIGIN LEVEL: 6296 DIFFERENT FILL-ORIGIN LEVEL: 92460
L1D AVERAGE MISS LATENCY: 117.561 cycles
L1D RQ	ACCESS:   64144132	FORWARD:          0	MERGED:   11709498	TO_CACHE:   49813252
L1D WQ	ACCESS:   37118330	FORWARD:    2621383	MERGED:     453737	TO_CACHE:   36664593
L1D PQ	ACCESS:     154972	FORWARD:          0	MERGED:        715	TO_CACHE:     154256

L1D UNIQUE REGIONS ACCESSED: 0
L1D REGIONS CONFLICTS: 0
L1D Cross Page Prefetch Requests: 170470
L1D Same Page Prefetch Requests: 47589
L1D ROI Sum of L1D PQ occupancy: 5349740
L1D PREFETCHES PUSHED FROM L2C: 0
L1I TOTAL     ACCESS:   38808300  HIT:   38729292  MISS:      79008  HIT %:    99.7964  MISS %:   0.203585   MPKI: 0.39504
L1I LOAD      ACCESS:   38808300  HIT:   38729292  MISS:      79008  HIT %:    99.7964  MISS %:   0.203585   MPKI: 0.39504
L1I PREFETCH  REQUESTED:          0  ISSUED:          0  USEFUL:          0  USELESS:          0
L1I USEFUL LOAD PREFETCHES:          0 PREFETCH ISSUED TO LOWER LEVEL:          0  ACCURACY: -nan
L1I TIMELY PREFETCHES:          0 LATE PREFETCHES: 0 DROPPED PREFETCHES: 0
L1I PREFETCHES SAME FILL-ORIGIN LEVEL: 0 DIFFERENT FILL-ORIGIN LEVEL: 0
L1I AVERAGE MISS LATENCY: 24.516 cycles
L1I RQ	ACCESS:   58173576	FORWARD:          0	MERGED:   19331671	TO_CACHE:   38841905

BTB TOTAL     ACCESS:   32188164  HIT:   30296058  MISS:    1892106  HIT %:    94.1217  MISS %:    5.87827   MPKI: 9.46053
BTB BRANCH_DIRECT_JUMP	ACCESS:    2276304  HIT:    2276179  MISS:        125
BTB BRANCH_INDIRECT	ACCESS:     671328  HIT:     585871  MISS:      85457
BTB BRANCH_CONDITIONAL	ACCESS:   17350102  HIT:   17349618  MISS:        484
BTB BRANCH_DIRECT_CALL	ACCESS:    3559126  HIT:    3558870  MISS:        256
BTB BRANCH_INDIRECT_CALL	ACCESS:    2386088  HIT:    2378106  MISS:       7982
BTB BRANCH_RETURN	ACCESS:    5945216  HIT:    4147414  MISS:    1797802
BTB BRANCH_OTHER ACCESS:          0  HIT:          0  MISS:          0

L2C TOTAL     ACCESS:    6909999  HIT:    3890965  MISS:    3019034  HIT %:    56.3092  MISS %:    43.6908   MPKI: 15.0952
L2C LOAD      ACCESS:    3226384  HIT:    1094878  MISS:    2131506  HIT %:    33.9351  MISS %:    66.0649   MPKI: 10.6575
L2C DATA LOAD MPKI: 10.5937
L2C INSTRUCTION LOAD MPKI: 0.06382
L2C RFO       ACCESS:     490991  HIT:     186327  MISS:     304664  HIT %:    37.9492  MISS %:    62.0508   MPKI: 1.52332
L2C PREFETCH  ACCESS:      98630  HIT:      29862  MISS:      68768  HIT %:    30.2768  MISS %:    69.7232   MPKI: 0.34384
L2C DATA PREFETCH MPKI: 0.34384
L2C INSTRUCTION PREFETCH MPKI: 0
L2C WRITEBACK ACCESS:    1803760  HIT:    1769193  MISS:      34567  HIT %:    98.0836  MISS %:    1.91639   MPKI: 0.172835
L2C LOAD TRANSLATION ACCESS:    1204014  HIT:     727137  MISS:     476877  HIT %:    60.3927  MISS %:    39.6073   MPKI: 2.38438
L2C TRANSLATION FROM L1D PREFETCHER ACCESS:      86220  HIT:      83568  MISS:       2652  HIT %:    96.9241  MISS %:    3.07585   MPKI: 0.01326
L2C PREFETCH  REQUESTED:          0  ISSUED:          0  USEFUL:      18783  USELESS:      52671
L2C USEFUL LOAD PREFETCHES:      18783 PREFETCH ISSUED TO LOWER LEVEL:      68788  ACCURACY: 27.3056
L2C TIMELY PREFETCHES:      18783 LATE PREFETCHES: 20 DROPPED PREFETCHES: 0
L2C PREFETCHES SAME FILL-ORIGIN LEVEL: 66078 DIFFERENT FILL-ORIGIN LEVEL: 0
L2C AVERAGE MISS LATENCY: 138.196 cycles
L2C RQ	ACCESS:    5007660	FORWARD:          0	MERGED:          0	TO_CACHE:    5007609
L2C WQ	ACCESS:    1803760	FORWARD:         51	MERGED:          0	TO_CACHE:    1803760
L2C PQ	ACCESS:      98756	FORWARD:          0	MERGED:          0	TO_CACHE:      98756

L2C Instructions Evicting Data 10382
L2C Translations Evicting Data 399501
L2C Data Evicting Data 2086706
L2C Instructions Evicting Instructions 979
L2C Translations Evicting Instructions 1422
L2C Data Evicting Instructions 10086
L2C Instructions Evicting Translations 1403
L2C Translations Evicting Translations 78606
L2C Data Evicting Translations 395382
L2C Dense regions hint from L2: 0
PSCL5 TOTAL     ACCESS:     900753  HIT:     900753  MISS:          0  HIT %:        100  MISS %:          0   MPKI: 0
PSCL5 LOAD TRANSLATION ACCESS:     849537  HIT:     849537  MISS:          0  HIT %:        100  MISS %:          0   MPKI: 0
PSCL5 TRANSLATION FROM L1D PREFETCHER ACCESS:      51216  HIT:      51216  MISS:          0  HIT %:        100  MISS %:          0   MPKI: 0
PSCL5 PREFETCH  REQUESTED:          0  ISSUED:          0  USEFUL:          0  USELESS:          0
PSCL5 USEFUL LOAD PREFETCHES:          0 PREFETCH ISSUED TO LOWER LEVEL:          0  ACCURACY: -nan
PSCL5 TIMELY PREFETCHES:          0 LATE PREFETCHES: 0 DROPPED PREFETCHES: 0
PSCL5 PREFETCHES SAME FILL-ORIGIN LEVEL: 0 DIFFERENT FILL-ORIGIN LEVEL: 0

PSCL4 TOTAL     ACCESS:     900753  HIT:     900753  MISS:          0  HIT %:        100  MISS %:          0   MPKI: 0
PSCL4 LOAD TRANSLATION ACCESS:     849537  HIT:     849537  MISS:          0  HIT %:        100  MISS %:          0   MPKI: 0
PSCL4 TRANSLATION FROM L1D PREFETCHER ACCESS:      51216  HIT:      51216  MISS:          0  HIT %:        100  MISS %:          0   MPKI: 0
PSCL4 PREFETCH  REQUESTED:          0  ISSUED:          0  USEFUL:          0  USELESS:          0
PSCL4 USEFUL LOAD PREFETCHES:          0 PREFETCH ISSUED TO LOWER LEVEL:          0  ACCURACY: -nan
PSCL4 TIMELY PREFETCHES:          0 LATE PREFETCHES: 0 DROPPED PREFETCHES: 0
PSCL4 PREFETCHES SAME FILL-ORIGIN LEVEL: 0 DIFFERENT FILL-ORIGIN LEVEL: 0

PSCL3 TOTAL     ACCESS:     900753  HIT:     900753  MISS:          0  HIT %:        100  MISS %:          0   MPKI: 0
PSCL3 LOAD TRANSLATION ACCESS:     849537  HIT:     849537  MISS:          0  HIT %:        100  MISS %:          0   MPKI: 0
PSCL3 TRANSLATION FROM L1D PREFETCHER ACCESS:      51216  HIT:      51216  MISS:          0  HIT %:        100  MISS %:          0   MPKI: 0
PSCL3 PREFETCH  REQUESTED:          0  ISSUED:          0  USEFUL:          0  USELESS:          0
PSCL3 USEFUL LOAD PREFETCHES:          0 PREFETCH ISSUED TO LOWER LEVEL:          0  ACCURACY: -nan
PSCL3 TIMELY PREFETCHES:          0 LATE PREFETCHES: 0 DROPPED PREFETCHES: 0
PSCL3 PREFETCHES SAME FILL-ORIGIN LEVEL: 0 DIFFERENT FILL-ORIGIN LEVEL: 0

PSCL2 TOTAL     ACCESS:     867567  HIT:     511272  MISS:     356295  HIT %:    58.9317  MISS %:    41.0683   MPKI: 1.78147
PSCL2 LOAD TRANSLATION ACCESS:     851355  HIT:     495060  MISS:     356295  HIT %:    58.1497  MISS %:    41.8503   MPKI: 1.78147
PSCL2 TRANSLATION FROM L1D PREFETCHER ACCESS:      16212  HIT:      16212  MISS:          0  HIT %:        100  MISS %:          0   MPKI: 0
PSCL2 PREFETCH  REQUESTED:          0  ISSUED:          0  USEFUL:          0  USELESS:          0
PSCL2 USEFUL LOAD PREFETCHES:          0 PREFETCH ISSUED TO LOWER LEVEL:          0  ACCURACY: -nan
PSCL2 TIMELY PREFETCHES:          0 LATE PREFETCHES: 0 DROPPED PREFETCHES: 0
PSCL2 PREFETCHES SAME FILL-ORIGIN LEVEL: 0 DIFFERENT FILL-ORIGIN LEVEL: 0

LLC TOTAL     ACCESS:    4139291  HIT:    2109231  MISS:    2030060  HIT %:    50.9563  MISS %:    49.0437   MPKI: 10.1503
LLC LOAD      ACCESS:    2131500  HIT:     479993  MISS:    1651507  HIT %:     22.519  MISS %:     77.481   MPKI: 8.25754
LLC RFO       ACCESS:     304649  HIT:     123859  MISS:     180790  HIT %:    40.6563  MISS %:    59.3437   MPKI: 0.90395
LLC PREFETCH  ACCESS:      68788  HIT:       3609  MISS:      65179  HIT %:    5.24655  MISS %:    94.7534   MPKI: 0.325895
LLC WRITEBACK ACCESS:    1154825  HIT:    1111280  MISS:      43545  HIT %:    96.2293  MISS %:     3.7707   MPKI: 0.217725
LLC LOAD TRANSLATION ACCESS:     476877  HIT:     388738  MISS:      88139  HIT %:    81.5175  MISS %:    18.4825   MPKI: 0.440695
LLC TRANSLATION FROM L1D PREFETCHER ACCESS:       2652  HIT:       1752  MISS:        900  HIT %:    66.0633  MISS %:    33.9367   MPKI: 0.0045
LLC PREFETCH  REQUESTED:          0  ISSUED:          0  USEFUL:       1665  USELESS:      64752
LLC USEFUL LOAD PREFETCHES:       1665 PREFETCH ISSUED TO LOWER LEVEL:      65179  ACCURACY: 2.5545
LLC TIMELY PREFETCHES:       1665 LATE PREFETCHES: 0 DROPPED PREFETCHES: 0
LLC PREFETCHES SAME FILL-ORIGIN LEVEL: 0 DIFFERENT FILL-ORIGIN LEVEL: 0
LLC AVERAGE MISS LATENCY: 161.413 cycles
LLC RQ	ACCESS:    2915679	FORWARD:          0	MERGED:          0	TO_CACHE:    2915678
LLC WQ	ACCESS:    1154825	FORWARD:          1	MERGED:          0	TO_CACHE:    1154825
LLC PQ	ACCESS:      68788	FORWARD:          0	MERGED:          0	TO_CACHE:      68788

LLC Dense regions hint to LLC: 0

RAW hits: 3304620
Loads Generated: 67448752
Loads sent to L1D: 64144132
Stores Generated: 37118330
Stores sent to L1D: 37118330
Major fault: 0 Minor fault: 47401
Allocated PAGES: 47401

DRAM Statistics
 CHANNEL 0
 RQ ROW_BUFFER_HIT:     155830  ROW_BUFFER_MISS:    1830684
 DBUS_CONGESTED:        458
 WQ ROW_BUFFER_HIT:     196337  ROW_BUFFER_MISS:     674615  FULL:          0

 AVG_CONGESTED_CYCLE: 4
 All warmup complete: 2
Channel 0 Bank busy for read cycles: 0
Channel 0 Bank busy for write cycles: 0
Channel 0
Rank 0
0banks busy for read cycles: 520602691
0banks busy for write cycles: 463711
1banks busy for read cycles: 158515767
1banks busy for write cycles: 72517212
2banks busy for read cycles: 37974304
2banks busy for write cycles: 27301230
3banks busy for read cycles: 10711824
3banks busy for write cycles: 9480510
4banks busy for read cycles: 3378908
4banks busy for write cycles: 2875150
5banks busy for read cycles: 285979
5banks busy for write cycles: 751597
6banks busy for read cycles: 86061
6banks busy for write cycles: 175685
7banks busy for read cycles: 32914
7banks busy for write cycles: 28498
8banks busy for read cycles: 13045
8banks busy for write cycles: 4161

CPU 0 Branch Prediction Accuracy: 97.6759% MPKI: 3.11055 Average ROB Occupancy at Mispredict: 34.8798
Branch types
NOT_BRANCH: 158393545 79.1968%
BRANCH_DIRECT_JUMP: 2276304 1.13815%
BRANCH_INDIRECT: 671328 0.335664%
BRANCH_CONDITIONAL: 26768026 13.384%
BRANCH_DIRECT_CALL: 3559126 1.77956%
BRANCH_INDIRECT_CALL: 2386088 1.19304%
BRANCH_RETURN: 5945216 2.97261%
BRANCH_OTHER: 0 0%

DRAM PAGES: 1048576
Allocated PAGES: 47401
