
*** ChampSim Multicore Out-of-Order Simulator ***

Warmup Instructions: 50000000
Simulation Instructions: 200000000
Number of CPUs: 1
LLC sets: 2048
LLC ways: 16
Off-chip DRAM Size: 4096 MB Channels: 1 Width: 64-bit Data Rate: 6400 MT/s
argv[0]: ./ChampSim/Berti/bin/multiperspective_perceptron8kb-no-vberti-no-no-no-no-no-lru-lru-lru-srrip-drrip-lru-lru-lru-1core-no
argv[1]: -warmup_instructions
argv[2]: 50000000
argv[3]: -simulation_instructions
argv[4]: 200000000
argv[5]: -traces
argv[6]: traces/spec2k17_ten/619.lbm_s-2676B.champsimtrace.xz
CPU 0 runs traces/spec2k17_ten/619.lbm_s-2676B.champsimtrace.xz
.xz
CPU 0 Multiperspective perceptron branch predictor
BTB has LRU replacement policy
ITLB has LRU replacement policy
DTLB has LRU replacement policy
STLB has LRU replacement policy
L1I has LRU replacement policy
History Sets: 8
History Ways: 16
BERTI Size: 16
BERTI Stride Size: 16
L1D has LRU replacement policy
Initialize SRRIP state for L2C
Initialize DRRIP state for LLC
Heartbeat CPU 0 instructions: 10000003 cycles: 2903894 heartbeat IPC: 3.44365 cumulative IPC: 3.44365 (Simulation time: 0 hr 11 min 23 sec) 
Heartbeat CPU 0 instructions: 20000003 cycles: 5802682 heartbeat IPC: 3.44972 cumulative IPC: 3.44668 (Simulation time: 0 hr 18 min 17 sec) 
Heartbeat CPU 0 instructions: 30000003 cycles: 8693393 heartbeat IPC: 3.45936 cumulative IPC: 3.4509 (Simulation time: 0 hr 24 min 2 sec) 
Heartbeat CPU 0 instructions: 40000002 cycles: 11568485 heartbeat IPC: 3.47815 cumulative IPC: 3.45767 (Simulation time: 0 hr 31 min 40 sec) 
Heartbeat CPU 0 instructions: 50000001 cycles: 14430657 heartbeat IPC: 3.49385 cumulative IPC: 3.46485 (Simulation time: 0 hr 38 min 30 sec) 

Warmup complete CPU 0 instructions: 50000001 cycles: 14430657 (Simulation time: 0 hr 38 min 30 sec) 

Heartbeat CPU 0 instructions: 60000001 cycles: 30908117 heartbeat IPC: 0.60689 cumulative IPC: 0.60689 (Simulation time: 0 hr 48 min 38 sec) 
Heartbeat CPU 0 instructions: 70000002 cycles: 46664994 heartbeat IPC: 0.634644 cumulative IPC: 0.620456 (Simulation time: 1 hr 0 min 23 sec) 
Heartbeat CPU 0 instructions: 80000002 cycles: 61120479 heartbeat IPC: 0.691779 cumulative IPC: 0.642538 (Simulation time: 1 hr 10 min 31 sec) 
Heartbeat CPU 0 instructions: 90000001 cycles: 75590847 heartbeat IPC: 0.691067 cumulative IPC: 0.65402 (Simulation time: 1 hr 17 min 49 sec) 
Heartbeat CPU 0 instructions: 100000003 cycles: 89253605 heartbeat IPC: 0.731917 cumulative IPC: 0.668244 (Simulation time: 1 hr 26 min 59 sec) 
Heartbeat CPU 0 instructions: 110000000 cycles: 102637433 heartbeat IPC: 0.74717 cumulative IPC: 0.68022 (Simulation time: 1 hr 33 min 7 sec) 
Heartbeat CPU 0 instructions: 120000003 cycles: 115514466 heartbeat IPC: 0.776577 cumulative IPC: 0.692495 (Simulation time: 1 hr 38 min 50 sec) 
Heartbeat CPU 0 instructions: 130000002 cycles: 127899336 heartbeat IPC: 0.807437 cumulative IPC: 0.70504 (Simulation time: 1 hr 45 min 47 sec) 
Heartbeat CPU 0 instructions: 140000003 cycles: 140223858 heartbeat IPC: 0.811391 cumulative IPC: 0.71546 (Simulation time: 1 hr 51 min 7 sec) 
Heartbeat CPU 0 instructions: 150000003 cycles: 152094321 heartbeat IPC: 0.842427 cumulative IPC: 0.726408 (Simulation time: 2 hr 0 min 7 sec) 
Heartbeat CPU 0 instructions: 160000002 cycles: 163529655 heartbeat IPC: 0.874482 cumulative IPC: 0.737765 (Simulation time: 2 hr 6 min 23 sec) 
Heartbeat CPU 0 instructions: 170000003 cycles: 174903451 heartbeat IPC: 0.879214 cumulative IPC: 0.74779 (Simulation time: 2 hr 12 min 18 sec) 
Heartbeat CPU 0 instructions: 180000000 cycles: 186280189 heartbeat IPC: 0.878986 cumulative IPC: 0.756476 (Simulation time: 2 hr 18 min 36 sec) 
Heartbeat CPU 0 instructions: 190000000 cycles: 197368693 heartbeat IPC: 0.901835 cumulative IPC: 0.765286 (Simulation time: 2 hr 27 min 42 sec) 
Heartbeat CPU 0 instructions: 200000003 cycles: 208352055 heartbeat IPC: 0.910468 cumulative IPC: 0.773509 (Simulation time: 2 hr 34 min 12 sec) 
Heartbeat CPU 0 instructions: 210000000 cycles: 219152572 heartbeat IPC: 0.925881 cumulative IPC: 0.781548 (Simulation time: 2 hr 39 min 57 sec) 
Heartbeat CPU 0 instructions: 220000000 cycles: 230011745 heartbeat IPC: 0.92088 cumulative IPC: 0.788566 (Simulation time: 2 hr 46 min 56 sec) 
Heartbeat CPU 0 instructions: 230000002 cycles: 240644354 heartbeat IPC: 0.940503 cumulative IPC: 0.795708 (Simulation time: 2 hr 53 min 47 sec) 
Heartbeat CPU 0 instructions: 240000001 cycles: 251394721 heartbeat IPC: 0.930201 cumulative IPC: 0.801809 (Simulation time: 3 hr 0 min 45 sec) 
Heartbeat CPU 0 instructions: 250000002 cycles: 262053345 heartbeat IPC: 0.938208 cumulative IPC: 0.80768 (Simulation time: 3 hr 6 min 32 sec) 
Finished CPU 0 instructions: 200000001 cycles: 247622688 cumulative IPC: 0.80768 (Simulation time: 3 hr 6 min 32 sec) 

ChampSim completed all CPUs

Region of Interest Statistics

CPU 0 cumulative IPC: 0.80768 instructions: 200000001 cycles: 247622688
ITLB TOTAL     ACCESS:   26077443  HIT:   26077443  MISS:          0  HIT %:        100  MISS %:          0   MPKI: 0
ITLB LOAD TRANSLATION ACCESS:   26077443  HIT:   26077443  MISS:          0  HIT %:        100  MISS %:          0   MPKI: 0
ITLB PREFETCH  REQUESTED:          0  ISSUED:          0  USEFUL:          0  USELESS:          0
ITLB USEFUL LOAD PREFETCHES:          0 PREFETCH ISSUED TO LOWER LEVEL:          0  ACCURACY: -nan
ITLB TIMELY PREFETCHES:          0 LATE PREFETCHES: 0 DROPPED PREFETCHES: 0
ITLB PREFETCHES SAME FILL-ORIGIN LEVEL: 0 DIFFERENT FILL-ORIGIN LEVEL: 0
ITLB AVERAGE MISS LATENCY: -nan cycles
ITLB RQ	ACCESS:   34077080	FORWARD:          0	MERGED:    7999638	TO_CACHE:   26077442

DTLB TOTAL     ACCESS:   36103557  HIT:   35950028  MISS:     153529  HIT %:    99.5748  MISS %:   0.425246   MPKI: 0.767645
DTLB LOAD TRANSLATION ACCESS:   36103557  HIT:   35950028  MISS:     153529  HIT %:    99.5748  MISS %:   0.425246   MPKI: 0.767645
DTLB PREFETCH  REQUESTED:          0  ISSUED:          0  USEFUL:          0  USELESS:          0
DTLB USEFUL LOAD PREFETCHES:          0 PREFETCH ISSUED TO LOWER LEVEL:          0  ACCURACY: -nan
DTLB TIMELY PREFETCHES:          0 LATE PREFETCHES: 0 DROPPED PREFETCHES: 0
DTLB PREFETCHES SAME FILL-ORIGIN LEVEL: 0 DIFFERENT FILL-ORIGIN LEVEL: 0
DTLB AVERAGE MISS LATENCY: 95.9486 cycles
DTLB RQ	ACCESS:   53874056	FORWARD:          0	MERGED:   17733782	TO_CACHE:   36140274

STLB TOTAL     ACCESS:    1191659  HIT:    1108366  MISS:      83293  HIT %:    93.0103  MISS %:    6.98967   MPKI: 0.416465
STLB LOAD TRANSLATION ACCESS:     153529  HIT:      70236  MISS:      83293  HIT %:    45.7477  MISS %:    54.2523   MPKI: 0.416465
STLB TRANSLATION FROM L1D PREFETCHER ACCESS:    1038130  HIT:    1038130  MISS:          0  HIT %:        100  MISS %:          0   MPKI: 0
STLB PREFETCH  REQUESTED:          0  ISSUED:          0  USEFUL:          0  USELESS:          0
STLB USEFUL LOAD PREFETCHES:          0 PREFETCH ISSUED TO LOWER LEVEL:          0  ACCURACY: -nan
STLB TIMELY PREFETCHES:          0 LATE PREFETCHES: 796 DROPPED PREFETCHES: 520325
STLB PREFETCHES SAME FILL-ORIGIN LEVEL: 0 DIFFERENT FILL-ORIGIN LEVEL: 0
STLB AVERAGE MISS LATENCY: 156.327 cycles
STLB RQ	ACCESS:   11377439	FORWARD:          0	MERGED:    9605688	TO_CACHE:    1771751

STLB Hit, L1D data hit: 0
STLB Hit, L2C data hit: 0
STLB Hit, LLC data hit: 0
STLB Hit, LLC data miss: 0
STLB STLB hints to L2: 0
L1D TOTAL     ACCESS:   57784880  HIT:   48988363  MISS:    8796517  HIT %:    84.7771  MISS %:    15.2229   MPKI: 43.9826
L1D LOAD      ACCESS:   22826311  HIT:   22237320  MISS:     588991  HIT %:    97.4197  MISS %:    2.58032   MPKI: 2.94495
L1D RFO       ACCESS:   30843478  HIT:   23381512  MISS:    7461966  HIT %:     75.807  MISS %:     24.193   MPKI: 37.3098
L1D PREFETCH  ACCESS:    4115091  HIT:    3369531  MISS:     745560  HIT %:    81.8823  MISS %:    18.1177   MPKI: 3.7278
L1D PREFETCH  REQUESTED:   27051423  ISSUED:   23876268  USEFUL:     743540  USELESS:       2024
L1D USEFUL LOAD PREFETCHES:     743540 PREFETCH ISSUED TO LOWER LEVEL:    5867413  ACCURACY: 12.6724
L1D TIMELY PREFETCHES:     743540 LATE PREFETCHES: 2898 DROPPED PREFETCHES: 1908755
L1D PREFETCHES SAME FILL-ORIGIN LEVEL: 748566 DIFFERENT FILL-ORIGIN LEVEL: 5118847
L1D AVERAGE MISS LATENCY: 285.554 cycles
L1D RQ	ACCESS:   46204623	FORWARD:          0	MERGED:   22092043	TO_CACHE:   22970499
L1D WQ	ACCESS:   31149766	FORWARD:    1142086	MERGED:     246209	TO_CACHE:   30903557
L1D PQ	ACCESS:   12652358	FORWARD:          0	MERGED:    1428443	TO_CACHE:   11223910

L1D UNIQUE REGIONS ACCESSED: 0
L1D REGIONS CONFLICTS: 0
L1D Cross Page Prefetch Requests: 3450977
L1D Same Page Prefetch Requests: 14129094
L1D ROI Sum of L1D PQ occupancy: 810365930
L1D PREFETCHES PUSHED FROM L2C: 0
L1I TOTAL     ACCESS:   34077079  HIT:   34077079  MISS:          0  HIT %:        100  MISS %:          0   MPKI: 0
L1I LOAD      ACCESS:   34077079  HIT:   34077079  MISS:          0  HIT %:        100  MISS %:          0   MPKI: 0
L1I PREFETCH  REQUESTED:          0  ISSUED:          0  USEFUL:          0  USELESS:          0
L1I USEFUL LOAD PREFETCHES:          0 PREFETCH ISSUED TO LOWER LEVEL:          0  ACCURACY: -nan
L1I TIMELY PREFETCHES:          0 LATE PREFETCHES: 0 DROPPED PREFETCHES: 0
L1I PREFETCHES SAME FILL-ORIGIN LEVEL: 0 DIFFERENT FILL-ORIGIN LEVEL: 0
L1I AVERAGE MISS LATENCY: -nan cycles
L1I RQ	ACCESS:   48050406	FORWARD:          0	MERGED:   13973326	TO_CACHE:   34077080

BTB TOTAL     ACCESS:    2423394  HIT:    2423388  MISS:          6  HIT %:    99.9998  MISS %: 0.000247587   MPKI: 3e-05
BTB BRANCH_DIRECT_JUMP	ACCESS:     120779  HIT:     120778  MISS:          1
BTB BRANCH_INDIRECT	ACCESS:          0  HIT:          0  MISS:          0
BTB BRANCH_CONDITIONAL	ACCESS:    2302615  HIT:    2302610  MISS:          5
BTB BRANCH_DIRECT_CALL	ACCESS:          0  HIT:          0  MISS:          0
BTB BRANCH_INDIRECT_CALL	ACCESS:          0  HIT:          0  MISS:          0
BTB BRANCH_RETURN	ACCESS:          0  HIT:          0  MISS:          0
BTB BRANCH_OTHER ACCESS:          0  HIT:          0  MISS:          0

L2C TOTAL     ACCESS:   21691017  HIT:   15795656  MISS:    5895361  HIT %:    72.8212  MISS %:    27.1788   MPKI: 29.4768
L2C LOAD      ACCESS:     586093  HIT:     450750  MISS:     135343  HIT %:    76.9076  MISS %:    23.0924   MPKI: 0.676715
L2C DATA LOAD MPKI: 0.676715
L2C INSTRUCTION LOAD MPKI: 0
L2C RFO       ACCESS:    7461966  HIT:    3354949  MISS:    4107017  HIT %:    44.9607  MISS %:    55.0393   MPKI: 20.5351
L2C PREFETCH  ACCESS:    5576551  HIT:    4377008  MISS:    1199543  HIT %:    78.4895  MISS %:    21.5105   MPKI: 5.99771
L2C DATA PREFETCH MPKI: 5.99771
L2C INSTRUCTION PREFETCH MPKI: 0
L2C WRITEBACK ACCESS:    7461965  HIT:    7019494  MISS:     442471  HIT %:    94.0703  MISS %:    5.92968   MPKI: 2.21235
L2C LOAD TRANSLATION ACCESS:      83295  HIT:      75146  MISS:       8149  HIT %:    90.2167  MISS %:     9.7833   MPKI: 0.040745
L2C TRANSLATION FROM L1D PREFETCHER ACCESS:     521147  HIT:     518309  MISS:       2838  HIT %:    99.4554  MISS %:   0.544568   MPKI: 0.01419
L2C PREFETCH  REQUESTED:          0  ISSUED:          0  USEFUL:     453443  USELESS:     749404
L2C USEFUL LOAD PREFETCHES:     453443 PREFETCH ISSUED TO LOWER LEVEL:    1216471  ACCURACY: 37.2753
L2C TIMELY PREFETCHES:     453443 LATE PREFETCHES: 16928 DROPPED PREFETCHES: 0
L2C PREFETCHES SAME FILL-ORIGIN LEVEL: 967687 DIFFERENT FILL-ORIGIN LEVEL: 0
L2C AVERAGE MISS LATENCY: 499.153 cycles
L2C RQ	ACCESS:    8652512	FORWARD:          0	MERGED:          0	TO_CACHE:    8652512
L2C WQ	ACCESS:    7461965	FORWARD:          0	MERGED:          0	TO_CACHE:    7461965
L2C PQ	ACCESS:    5852681	FORWARD:          0	MERGED:        645	TO_CACHE:    5852036

L2C Instructions Evicting Data 0
L2C Translations Evicting Data 10913
L2C Data Evicting Data 5431688
L2C Instructions Evicting Instructions 0
L2C Translations Evicting Instructions 0
L2C Data Evicting Instructions 0
L2C Instructions Evicting Translations 0
L2C Translations Evicting Translations 74
L2C Data Evicting Translations 10215
L2C Dense regions hint from L2: 0
PSCL5 TOTAL     ACCESS:     604414  HIT:     604414  MISS:          0  HIT %:        100  MISS %:          0   MPKI: 0
PSCL5 LOAD TRANSLATION ACCESS:      83293  HIT:      83293  MISS:          0  HIT %:        100  MISS %:          0   MPKI: 0
PSCL5 TRANSLATION FROM L1D PREFETCHER ACCESS:     521121  HIT:     521121  MISS:          0  HIT %:        100  MISS %:          0   MPKI: 0
PSCL5 PREFETCH  REQUESTED:          0  ISSUED:          0  USEFUL:          0  USELESS:          0
PSCL5 USEFUL LOAD PREFETCHES:          0 PREFETCH ISSUED TO LOWER LEVEL:          0  ACCURACY: -nan
PSCL5 TIMELY PREFETCHES:          0 LATE PREFETCHES: 0 DROPPED PREFETCHES: 0
PSCL5 PREFETCHES SAME FILL-ORIGIN LEVEL: 0 DIFFERENT FILL-ORIGIN LEVEL: 0

PSCL4 TOTAL     ACCESS:     604414  HIT:     604414  MISS:          0  HIT %:        100  MISS %:          0   MPKI: 0
PSCL4 LOAD TRANSLATION ACCESS:      83293  HIT:      83293  MISS:          0  HIT %:        100  MISS %:          0   MPKI: 0
PSCL4 TRANSLATION FROM L1D PREFETCHER ACCESS:     521121  HIT:     521121  MISS:          0  HIT %:        100  MISS %:          0   MPKI: 0
PSCL4 PREFETCH  REQUESTED:          0  ISSUED:          0  USEFUL:          0  USELESS:          0
PSCL4 USEFUL LOAD PREFETCHES:          0 PREFETCH ISSUED TO LOWER LEVEL:          0  ACCURACY: -nan
PSCL4 TIMELY PREFETCHES:          0 LATE PREFETCHES: 0 DROPPED PREFETCHES: 0
PSCL4 PREFETCHES SAME FILL-ORIGIN LEVEL: 0 DIFFERENT FILL-ORIGIN LEVEL: 0

PSCL3 TOTAL     ACCESS:     604414  HIT:     604414  MISS:          0  HIT %:        100  MISS %:          0   MPKI: 0
PSCL3 LOAD TRANSLATION ACCESS:      83293  HIT:      83293  MISS:          0  HIT %:        100  MISS %:          0   MPKI: 0
PSCL3 TRANSLATION FROM L1D PREFETCHER ACCESS:     521121  HIT:     521121  MISS:          0  HIT %:        100  MISS %:          0   MPKI: 0
PSCL3 PREFETCH  REQUESTED:          0  ISSUED:          0  USEFUL:          0  USELESS:          0
PSCL3 USEFUL LOAD PREFETCHES:          0 PREFETCH ISSUED TO LOWER LEVEL:          0  ACCURACY: -nan
PSCL3 TIMELY PREFETCHES:          0 LATE PREFETCHES: 0 DROPPED PREFETCHES: 0
PSCL3 PREFETCHES SAME FILL-ORIGIN LEVEL: 0 DIFFERENT FILL-ORIGIN LEVEL: 0

PSCL2 TOTAL     ACCESS:     602219  HIT:     602136  MISS:         83  HIT %:    99.9862  MISS %:  0.0137824   MPKI: 0.000415
PSCL2 LOAD TRANSLATION ACCESS:      83293  HIT:      83210  MISS:         83  HIT %:    99.9004  MISS %:  0.0996482   MPKI: 0.000415
PSCL2 TRANSLATION FROM L1D PREFETCHER ACCESS:     518926  HIT:     518926  MISS:          0  HIT %:        100  MISS %:          0   MPKI: 0
PSCL2 PREFETCH  REQUESTED:          0  ISSUED:          0  USEFUL:          0  USELESS:          0
PSCL2 USEFUL LOAD PREFETCHES:          0 PREFETCH ISSUED TO LOWER LEVEL:          0  ACCURACY: -nan
PSCL2 TIMELY PREFETCHES:          0 LATE PREFETCHES: 0 DROPPED PREFETCHES: 0
PSCL2 PREFETCHES SAME FILL-ORIGIN LEVEL: 0 DIFFERENT FILL-ORIGIN LEVEL: 0

LLC TOTAL     ACCESS:    9574468  HIT:    4172616  MISS:    5401852  HIT %:    43.5807  MISS %:    56.4193   MPKI: 27.0093
LLC LOAD      ACCESS:     118415  HIT:        196  MISS:     118219  HIT %:    0.16552  MISS %:    99.8345   MPKI: 0.591095
LLC RFO       ACCESS:    4106977  HIT:     109540  MISS:    3997437  HIT %:    2.66717  MISS %:    97.3328   MPKI: 19.9872
LLC PREFETCH  ACCESS:    1216471  HIT:       1809  MISS:    1214662  HIT %:   0.148709  MISS %:    99.8513   MPKI: 6.07331
LLC WRITEBACK ACCESS:    4121618  HIT:    4060601  MISS:      61017  HIT %:    98.5196  MISS %:    1.48041   MPKI: 0.305085
LLC LOAD TRANSLATION ACCESS:       8149  HIT:        283  MISS:       7866  HIT %:    3.47282  MISS %:    96.5272   MPKI: 0.03933
LLC TRANSLATION FROM L1D PREFETCHER ACCESS:       2838  HIT:        187  MISS:       2651  HIT %:    6.58915  MISS %:    93.4109   MPKI: 0.013255
LLC PREFETCH  REQUESTED:          0  ISSUED:          0  USEFUL:        339  USELESS:    1215935
LLC USEFUL LOAD PREFETCHES:        339 PREFETCH ISSUED TO LOWER LEVEL:    1214662  ACCURACY: 0.027909
LLC TIMELY PREFETCHES:        339 LATE PREFETCHES: 0 DROPPED PREFETCHES: 0
LLC PREFETCHES SAME FILL-ORIGIN LEVEL: 0 DIFFERENT FILL-ORIGIN LEVEL: 0
LLC AVERAGE MISS LATENCY: 515.846 cycles
LLC RQ	ACCESS:    4236430	FORWARD:          0	MERGED:          0	TO_CACHE:    4236390
LLC WQ	ACCESS:    4121618	FORWARD:         40	MERGED:          0	TO_CACHE:    4121618
LLC PQ	ACCESS:    1216471	FORWARD:          0	MERGED:          0	TO_CACHE:    1216471

LLC Dense regions hint to LLC: 0

RAW hits: 1554471
Loads Generated: 47759094
Loads sent to L1D: 46204623
Stores Generated: 31149747
Stores sent to L1D: 31149766
Major fault: 0 Minor fault: 61402
Allocated PAGES: 61402

DRAM Statistics
 CHANNEL 0
 RQ ROW_BUFFER_HIT:     507370  ROW_BUFFER_MISS:    4833465
 DBUS_CONGESTED:          0
 WQ ROW_BUFFER_HIT:     612023  ROW_BUFFER_MISS:    3386621  FULL:          0

 AVG_CONGESTED_CYCLE: -
 All warmup complete: 2
Channel 0 Bank busy for read cycles: 0
Channel 0 Bank busy for write cycles: 0
Channel 0
Rank 0
0banks busy for read cycles: 69820
0banks busy for write cycles: 0
1banks busy for read cycles: 3851564
1banks busy for write cycles: 416974
2banks busy for read cycles: 7703801
2banks busy for write cycles: 416960
3banks busy for read cycles: 14888769
3banks busy for write cycles: 416947
4banks busy for read cycles: 14974466
4banks busy for write cycles: 416927
5banks busy for read cycles: 27804534
5banks busy for write cycles: 416922
6banks busy for read cycles: 27434139
6banks busy for write cycles: 426991
7banks busy for read cycles: 28489820
7banks busy for write cycles: 4721651
8banks busy for read cycles: 27150832
8banks busy for write cycles: 88021572

CPU 0 Branch Prediction Accuracy: 99.0046% MPKI: 0.1146 Average ROB Occupancy at Mispredict: 144.164
Branch types
NOT_BRANCH: 197576254 98.7881%
BRANCH_DIRECT_JUMP: 120779 0.0603895%
BRANCH_INDIRECT: 0 0%
BRANCH_CONDITIONAL: 2302625 1.15131%
BRANCH_DIRECT_CALL: 0 0%
BRANCH_INDIRECT_CALL: 0 0%
BRANCH_RETURN: 0 0%
BRANCH_OTHER: 0 0%

DRAM PAGES: 1048576
Allocated PAGES: 61402
