
*** ChampSim Multicore Out-of-Order Simulator ***

Warmup Instructions: 50000000
Simulation Instructions: 200000000
Number of CPUs: 1
LLC sets: 2048
LLC ways: 16
Off-chip DRAM Size: 4096 MB Channels: 1 Width: 64-bit Data Rate: 6400 MT/s
argv[0]: ./ChampSim/Berti/bin/multiperspective_perceptron8kb-no-vberti-no-no-no-no-no-lru-lru-lru-srrip-drrip-lru-lru-lru-1core-no
argv[1]: -warmup_instructions
argv[2]: 50000000
argv[3]: -simulation_instructions
argv[4]: 200000000
argv[5]: -traces
argv[6]: traces/spec2k17_ten/619.lbm_s-4268B.champsimtrace.xz
CPU 0 runs traces/spec2k17_ten/619.lbm_s-4268B.champsimtrace.xz
.xz
CPU 0 Multiperspective perceptron branch predictor
BTB has LRU replacement policy
ITLB has LRU replacement policy
DTLB has LRU replacement policy
STLB has LRU replacement policy
L1I has LRU replacement policy
History Sets: 8
History Ways: 16
BERTI Size: 16
BERTI Stride Size: 16
L1D has LRU replacement policy
Initialize SRRIP state for L2C
Initialize DRRIP state for LLC
Heartbeat CPU 0 instructions: 10000000 cycles: 2915981 heartbeat IPC: 3.42938 cumulative IPC: 3.42938 (Simulation time: 0 hr 10 min 36 sec) 
Heartbeat CPU 0 instructions: 20000001 cycles: 5830718 heartbeat IPC: 3.43084 cumulative IPC: 3.43011 (Simulation time: 0 hr 17 min 56 sec) 
Heartbeat CPU 0 instructions: 30000000 cycles: 8740639 heartbeat IPC: 3.43652 cumulative IPC: 3.43224 (Simulation time: 0 hr 24 min 13 sec) 
Heartbeat CPU 0 instructions: 40000000 cycles: 11657878 heartbeat IPC: 3.4279 cumulative IPC: 3.43116 (Simulation time: 0 hr 29 min 59 sec) 
Heartbeat CPU 0 instructions: 50000002 cycles: 14575620 heartbeat IPC: 3.42731 cumulative IPC: 3.43039 (Simulation time: 0 hr 36 min 31 sec) 

Warmup complete CPU 0 instructions: 50000002 cycles: 14575620 (Simulation time: 0 hr 36 min 31 sec) 

Heartbeat CPU 0 instructions: 60000000 cycles: 35735491 heartbeat IPC: 0.472593 cumulative IPC: 0.472593 (Simulation time: 0 hr 51 min 46 sec) 
Heartbeat CPU 0 instructions: 70000000 cycles: 56590539 heartbeat IPC: 0.4795 cumulative IPC: 0.476021 (Simulation time: 1 hr 6 min 22 sec) 
Heartbeat CPU 0 instructions: 80000000 cycles: 77192090 heartbeat IPC: 0.4854 cumulative IPC: 0.479107 (Simulation time: 1 hr 19 min 19 sec) 
Heartbeat CPU 0 instructions: 90000000 cycles: 98111636 heartbeat IPC: 0.478022 cumulative IPC: 0.478835 (Simulation time: 1 hr 32 min 2 sec) 
Heartbeat CPU 0 instructions: 100000001 cycles: 118615861 heartbeat IPC: 0.487704 cumulative IPC: 0.480583 (Simulation time: 1 hr 41 min 23 sec) 
Heartbeat CPU 0 instructions: 110000000 cycles: 139438968 heartbeat IPC: 0.480236 cumulative IPC: 0.480525 (Simulation time: 1 hr 50 min 6 sec) 
Heartbeat CPU 0 instructions: 120000001 cycles: 160558893 heartbeat IPC: 0.473487 cumulative IPC: 0.479507 (Simulation time: 1 hr 58 min 58 sec) 
Heartbeat CPU 0 instructions: 130000002 cycles: 181103607 heartbeat IPC: 0.486743 cumulative IPC: 0.4804 (Simulation time: 2 hr 6 min 57 sec) 
Heartbeat CPU 0 instructions: 140000003 cycles: 201924507 heartbeat IPC: 0.480287 cumulative IPC: 0.480387 (Simulation time: 2 hr 16 min 48 sec) 
Heartbeat CPU 0 instructions: 150000001 cycles: 222941445 heartbeat IPC: 0.475807 cumulative IPC: 0.479925 (Simulation time: 2 hr 28 min 22 sec) 
Heartbeat CPU 0 instructions: 160000003 cycles: 244273280 heartbeat IPC: 0.468783 cumulative IPC: 0.47889 (Simulation time: 2 hr 38 min 42 sec) 
Heartbeat CPU 0 instructions: 170000002 cycles: 265389181 heartbeat IPC: 0.473577 cumulative IPC: 0.478443 (Simulation time: 2 hr 50 min 0 sec) 
Heartbeat CPU 0 instructions: 180000002 cycles: 286439280 heartbeat IPC: 0.475057 cumulative IPC: 0.478181 (Simulation time: 2 hr 58 min 18 sec) 
Heartbeat CPU 0 instructions: 190000001 cycles: 307699834 heartbeat IPC: 0.470355 cumulative IPC: 0.477613 (Simulation time: 3 hr 8 min 2 sec) 
Heartbeat CPU 0 instructions: 200000001 cycles: 328821889 heartbeat IPC: 0.473439 cumulative IPC: 0.477333 (Simulation time: 3 hr 15 min 49 sec) 
Heartbeat CPU 0 instructions: 210000003 cycles: 350339314 heartbeat IPC: 0.46474 cumulative IPC: 0.476526 (Simulation time: 3 hr 24 min 18 sec) 
Heartbeat CPU 0 instructions: 220000000 cycles: 371511463 heartbeat IPC: 0.472318 cumulative IPC: 0.476276 (Simulation time: 3 hr 29 min 44 sec) 
Heartbeat CPU 0 instructions: 230000000 cycles: 392950385 heartbeat IPC: 0.466441 cumulative IPC: 0.475719 (Simulation time: 3 hr 34 min 17 sec) 
Heartbeat CPU 0 instructions: 240000002 cycles: 414270804 heartbeat IPC: 0.469034 cumulative IPC: 0.475362 (Simulation time: 3 hr 38 min 12 sec) 
Heartbeat CPU 0 instructions: 250000001 cycles: 434990786 heartbeat IPC: 0.482626 cumulative IPC: 0.47572 (Simulation time: 3 hr 41 min 35 sec) 
Finished CPU 0 instructions: 200000002 cycles: 420415167 cumulative IPC: 0.47572 (Simulation time: 3 hr 41 min 35 sec) 

ChampSim completed all CPUs

Region of Interest Statistics

CPU 0 cumulative IPC: 0.47572 instructions: 200000002 cycles: 420415167
ITLB TOTAL     ACCESS:   26848295  HIT:   26848295  MISS:          0  HIT %:        100  MISS %:          0   MPKI: 0
ITLB LOAD TRANSLATION ACCESS:   26848295  HIT:   26848295  MISS:          0  HIT %:        100  MISS %:          0   MPKI: 0
ITLB PREFETCH  REQUESTED:          0  ISSUED:          0  USEFUL:          0  USELESS:          0
ITLB USEFUL LOAD PREFETCHES:          0 PREFETCH ISSUED TO LOWER LEVEL:          0  ACCURACY: -nan
ITLB TIMELY PREFETCHES:          0 LATE PREFETCHES: 0 DROPPED PREFETCHES: 0
ITLB PREFETCHES SAME FILL-ORIGIN LEVEL: 0 DIFFERENT FILL-ORIGIN LEVEL: 0
ITLB AVERAGE MISS LATENCY: -nan cycles
ITLB RQ	ACCESS:   34650113	FORWARD:          0	MERGED:    7801818	TO_CACHE:   26848295

DTLB TOTAL     ACCESS:   38226797  HIT:   37950270  MISS:     276527  HIT %:    99.2766  MISS %:   0.723385   MPKI: 1.38263
DTLB LOAD TRANSLATION ACCESS:   38226797  HIT:   37950270  MISS:     276527  HIT %:    99.2766  MISS %:   0.723385   MPKI: 1.38263
DTLB PREFETCH  REQUESTED:          0  ISSUED:          0  USEFUL:          0  USELESS:          0
DTLB USEFUL LOAD PREFETCHES:          0 PREFETCH ISSUED TO LOWER LEVEL:          0  ACCURACY: -nan
DTLB TIMELY PREFETCHES:          0 LATE PREFETCHES: 0 DROPPED PREFETCHES: 0
DTLB PREFETCHES SAME FILL-ORIGIN LEVEL: 0 DIFFERENT FILL-ORIGIN LEVEL: 0
DTLB AVERAGE MISS LATENCY: 103.909 cycles
DTLB RQ	ACCESS:   56158812	FORWARD:          0	MERGED:   17800221	TO_CACHE:   38358591

STLB TOTAL     ACCESS:    1462091  HIT:    1312067  MISS:     150024  HIT %:    89.7391  MISS %:    10.2609   MPKI: 0.75012
STLB LOAD TRANSLATION ACCESS:     276527  HIT:     126503  MISS:     150024  HIT %:    45.7471  MISS %:    54.2529   MPKI: 0.75012
STLB TRANSLATION FROM L1D PREFETCHER ACCESS:    1185564  HIT:    1185564  MISS:          0  HIT %:        100  MISS %:          0   MPKI: 0
STLB PREFETCH  REQUESTED:          0  ISSUED:          0  USEFUL:          0  USELESS:          0
STLB USEFUL LOAD PREFETCHES:          0 PREFETCH ISSUED TO LOWER LEVEL:          0  ACCURACY: -nan
STLB TIMELY PREFETCHES:          0 LATE PREFETCHES: 3469 DROPPED PREFETCHES: 507013
STLB PREFETCHES SAME FILL-ORIGIN LEVEL: 0 DIFFERENT FILL-ORIGIN LEVEL: 0
STLB AVERAGE MISS LATENCY: 172.987 cycles
STLB RQ	ACCESS:   11007022	FORWARD:          0	MERGED:    8978661	TO_CACHE:    2028361

STLB Hit, L1D data hit: 0
STLB Hit, L2C data hit: 0
STLB Hit, LLC data hit: 0
STLB Hit, LLC data miss: 0
STLB STLB hints to L2: 0
L1D TOTAL     ACCESS:   57805312  HIT:   41957570  MISS:   15847742  HIT %:    72.5843  MISS %:    27.4157   MPKI: 79.2387
L1D LOAD      ACCESS:   19596075  HIT:   17614012  MISS:    1982063  HIT %:    89.8854  MISS %:    10.1146   MPKI: 9.91031
L1D RFO       ACCESS:   36036299  HIT:   22595628  MISS:   13440671  HIT %:    62.7024  MISS %:    37.2976   MPKI: 67.2034
L1D PREFETCH  ACCESS:    2172938  HIT:    1747930  MISS:     425008  HIT %:    80.4409  MISS %:    19.5591   MPKI: 2.12504
L1D PREFETCH  REQUESTED:   33685100  ISSUED:   22659479  USEFUL:     418430  USELESS:       6597
L1D USEFUL LOAD PREFETCHES:     418430 PREFETCH ISSUED TO LOWER LEVEL:    6822017  ACCURACY: 6.13352
L1D TIMELY PREFETCHES:     418430 LATE PREFETCHES: 10558 DROPPED PREFETCHES: 1982006
L1D PREFETCHES SAME FILL-ORIGIN LEVEL: 435815 DIFFERENT FILL-ORIGIN LEVEL: 6386202
L1D AVERAGE MISS LATENCY: 337.577 cycles
L1D RQ	ACCESS:   49547438	FORWARD:          0	MERGED:   26870762	TO_CACHE:   19905197
L1D WQ	ACCESS:   36967904	FORWARD:    2771480	MERGED:     714289	TO_CACHE:   36253615
L1D PQ	ACCESS:   11928984	FORWARD:          0	MERGED:    1198488	TO_CACHE:   10730495

L1D UNIQUE REGIONS ACCESSED: 0
L1D REGIONS CONFLICTS: 0
L1D Cross Page Prefetch Requests: 3856658
L1D Same Page Prefetch Requests: 13277655
L1D ROI Sum of L1D PQ occupancy: 2593151362
L1D PREFETCHES PUSHED FROM L2C: 0
L1I TOTAL     ACCESS:   34650111  HIT:   34650111  MISS:          0  HIT %:        100  MISS %:          0   MPKI: 0
L1I LOAD      ACCESS:   34650111  HIT:   34650111  MISS:          0  HIT %:        100  MISS %:          0   MPKI: 0
L1I PREFETCH  REQUESTED:          0  ISSUED:          0  USEFUL:          0  USELESS:          0
L1I USEFUL LOAD PREFETCHES:          0 PREFETCH ISSUED TO LOWER LEVEL:          0  ACCURACY: -nan
L1I TIMELY PREFETCHES:          0 LATE PREFETCHES: 0 DROPPED PREFETCHES: 0
L1I PREFETCHES SAME FILL-ORIGIN LEVEL: 0 DIFFERENT FILL-ORIGIN LEVEL: 0
L1I AVERAGE MISS LATENCY: -nan cycles
L1I RQ	ACCESS:   49718207	FORWARD:          0	MERGED:   15068094	TO_CACHE:   34650113

BTB TOTAL     ACCESS:    3614433  HIT:    3614427  MISS:          6  HIT %:    99.9998  MISS %: 0.000166001   MPKI: 3e-05
BTB BRANCH_DIRECT_JUMP	ACCESS:     592790  HIT:     592789  MISS:          1
BTB BRANCH_INDIRECT	ACCESS:          0  HIT:          0  MISS:          0
BTB BRANCH_CONDITIONAL	ACCESS:    3021643  HIT:    3021638  MISS:          5
BTB BRANCH_DIRECT_CALL	ACCESS:          0  HIT:          0  MISS:          0
BTB BRANCH_INDIRECT_CALL	ACCESS:          0  HIT:          0  MISS:          0
BTB BRANCH_RETURN	ACCESS:          0  HIT:          0  MISS:          0
BTB BRANCH_OTHER ACCESS:          0  HIT:          0  MISS:          0

L2C TOTAL     ACCESS:   35829409  HIT:   25252000  MISS:   10577409  HIT %:    70.4784  MISS %:    29.5216   MPKI: 52.887
L2C LOAD      ACCESS:    1971505  HIT:    1490197  MISS:     481308  HIT %:    75.5868  MISS %:    24.4132   MPKI: 2.40654
L2C DATA LOAD MPKI: 2.40654
L2C INSTRUCTION LOAD MPKI: 0
L2C RFO       ACCESS:   13440660  HIT:    6049568  MISS:    7391092  HIT %:    45.0095  MISS %:    54.9905   MPKI: 36.9555
L2C PREFETCH  ACCESS:    6274162  HIT:    4349869  MISS:    1924293  HIT %:    69.3299  MISS %:    30.6701   MPKI: 9.62146
L2C DATA PREFETCH MPKI: 9.62146
L2C INSTRUCTION PREFETCH MPKI: 0
L2C WRITEBACK ACCESS:   13440660  HIT:   12679798  MISS:     760862  HIT %:    94.3391  MISS %:     5.6609   MPKI: 3.80431
L2C LOAD TRANSLATION ACCESS:     150028  HIT:     135313  MISS:      14715  HIT %:    90.1918  MISS %:    9.80817   MPKI: 0.073575
L2C TRANSLATION FROM L1D PREFETCHER ACCESS:     552394  HIT:     547255  MISS:       5139  HIT %:    99.0697  MISS %:   0.930314   MPKI: 0.025695
L2C PREFETCH  REQUESTED:          0  ISSUED:          0  USEFUL:    1495154  USELESS:     435233
L2C USEFUL LOAD PREFETCHES:    1495154 PREFETCH ISSUED TO LOWER LEVEL:    2000477  ACCURACY: 74.7399
L2C TIMELY PREFETCHES:    1495154 LATE PREFETCHES: 76183 DROPPED PREFETCHES: 0
L2C PREFETCHES SAME FILL-ORIGIN LEVEL: 1889196 DIFFERENT FILL-ORIGIN LEVEL: 0
L2C AVERAGE MISS LATENCY: 593.574 cycles
L2C RQ	ACCESS:   16114610	FORWARD:          0	MERGED:          0	TO_CACHE:   16114599
L2C WQ	ACCESS:   13440660	FORWARD:         11	MERGED:          0	TO_CACHE:   13440660
L2C PQ	ACCESS:    6697135	FORWARD:          0	MERGED:       2687	TO_CACHE:    6694448

L2C Instructions Evicting Data 0
L2C Translations Evicting Data 19799
L2C Data Evicting Data 9778112
L2C Instructions Evicting Instructions 0
L2C Translations Evicting Instructions 0
L2C Data Evicting Instructions 0
L2C Instructions Evicting Translations 0
L2C Translations Evicting Translations 55
L2C Data Evicting Translations 18581
L2C Dense regions hint from L2: 0
PSCL5 TOTAL     ACCESS:     660506  HIT:     660506  MISS:          0  HIT %:        100  MISS %:          0   MPKI: 0
PSCL5 LOAD TRANSLATION ACCESS:     150024  HIT:     150024  MISS:          0  HIT %:        100  MISS %:          0   MPKI: 0
PSCL5 TRANSLATION FROM L1D PREFETCHER ACCESS:     510482  HIT:     510482  MISS:          0  HIT %:        100  MISS %:          0   MPKI: 0
PSCL5 PREFETCH  REQUESTED:          0  ISSUED:          0  USEFUL:          0  USELESS:          0
PSCL5 USEFUL LOAD PREFETCHES:          0 PREFETCH ISSUED TO LOWER LEVEL:          0  ACCURACY: -nan
PSCL5 TIMELY PREFETCHES:          0 LATE PREFETCHES: 0 DROPPED PREFETCHES: 0
PSCL5 PREFETCHES SAME FILL-ORIGIN LEVEL: 0 DIFFERENT FILL-ORIGIN LEVEL: 0

PSCL4 TOTAL     ACCESS:     660506  HIT:     660506  MISS:          0  HIT %:        100  MISS %:          0   MPKI: 0
PSCL4 LOAD TRANSLATION ACCESS:     150024  HIT:     150024  MISS:          0  HIT %:        100  MISS %:          0   MPKI: 0
PSCL4 TRANSLATION FROM L1D PREFETCHER ACCESS:     510482  HIT:     510482  MISS:          0  HIT %:        100  MISS %:          0   MPKI: 0
PSCL4 PREFETCH  REQUESTED:          0  ISSUED:          0  USEFUL:          0  USELESS:          0
PSCL4 USEFUL LOAD PREFETCHES:          0 PREFETCH ISSUED TO LOWER LEVEL:          0  ACCURACY: -nan
PSCL4 TIMELY PREFETCHES:          0 LATE PREFETCHES: 0 DROPPED PREFETCHES: 0
PSCL4 PREFETCHES SAME FILL-ORIGIN LEVEL: 0 DIFFERENT FILL-ORIGIN LEVEL: 0

PSCL3 TOTAL     ACCESS:     660506  HIT:     660506  MISS:          0  HIT %:        100  MISS %:          0   MPKI: 0
PSCL3 LOAD TRANSLATION ACCESS:     150024  HIT:     150024  MISS:          0  HIT %:        100  MISS %:          0   MPKI: 0
PSCL3 TRANSLATION FROM L1D PREFETCHER ACCESS:     510482  HIT:     510482  MISS:          0  HIT %:        100  MISS %:          0   MPKI: 0
PSCL3 PREFETCH  REQUESTED:          0  ISSUED:          0  USEFUL:          0  USELESS:          0
PSCL3 USEFUL LOAD PREFETCHES:          0 PREFETCH ISSUED TO LOWER LEVEL:          0  ACCURACY: -nan
PSCL3 TIMELY PREFETCHES:          0 LATE PREFETCHES: 0 DROPPED PREFETCHES: 0
PSCL3 PREFETCHES SAME FILL-ORIGIN LEVEL: 0 DIFFERENT FILL-ORIGIN LEVEL: 0

PSCL2 TOTAL     ACCESS:     617550  HIT:     617400  MISS:        150  HIT %:    99.9757  MISS %:  0.0242895   MPKI: 0.00075
PSCL2 LOAD TRANSLATION ACCESS:     150024  HIT:     149874  MISS:        150  HIT %:       99.9  MISS %:   0.099984   MPKI: 0.00075
PSCL2 TRANSLATION FROM L1D PREFETCHER ACCESS:     467526  HIT:     467526  MISS:          0  HIT %:        100  MISS %:          0   MPKI: 0
PSCL2 PREFETCH  REQUESTED:          0  ISSUED:          0  USEFUL:          0  USELESS:          0
PSCL2 USEFUL LOAD PREFETCHES:          0 PREFETCH ISSUED TO LOWER LEVEL:          0  ACCURACY: -nan
PSCL2 TIMELY PREFETCHES:          0 LATE PREFETCHES: 0 DROPPED PREFETCHES: 0
PSCL2 PREFETCHES SAME FILL-ORIGIN LEVEL: 0 DIFFERENT FILL-ORIGIN LEVEL: 0

LLC TOTAL     ACCESS:   17228548  HIT:    7189624  MISS:   10038924  HIT %:    41.7309  MISS %:    58.2691   MPKI: 50.1946
LLC LOAD      ACCESS:     405125  HIT:       1143  MISS:     403982  HIT %:   0.282135  MISS %:    99.7179   MPKI: 2.01991
LLC RFO       ACCESS:    7390945  HIT:     190934  MISS:    7200011  HIT %:    2.58335  MISS %:    97.4166   MPKI: 36.0001
LLC PREFETCH  ACCESS:    2000476  HIT:       4006  MISS:    1996470  HIT %:   0.200252  MISS %:    99.7997   MPKI: 9.98235
LLC WRITEBACK ACCESS:    7412148  HIT:    6992784  MISS:     419364  HIT %:    94.3422  MISS %:    5.65779   MPKI: 2.09682
LLC LOAD TRANSLATION ACCESS:      14715  HIT:        534  MISS:      14181  HIT %:    3.62895  MISS %:     96.371   MPKI: 0.070905
LLC TRANSLATION FROM L1D PREFETCHER ACCESS:       5139  HIT:        223  MISS:       4916  HIT %:    4.33937  MISS %:    95.6606   MPKI: 0.02458
LLC PREFETCH  REQUESTED:          0  ISSUED:          0  USEFUL:       1119  USELESS:    1996982
LLC USEFUL LOAD PREFETCHES:       1119 PREFETCH ISSUED TO LOWER LEVEL:    1996471  ACCURACY: 0.0560489
LLC TIMELY PREFETCHES:       1119 LATE PREFETCHES: 0 DROPPED PREFETCHES: 0
LLC PREFETCHES SAME FILL-ORIGIN LEVEL: 0 DIFFERENT FILL-ORIGIN LEVEL: 0
LLC AVERAGE MISS LATENCY: 600.115 cycles
LLC RQ	ACCESS:    7816083	FORWARD:          0	MERGED:          0	TO_CACHE:    7815936
LLC WQ	ACCESS:    7412150	FORWARD:        147	MERGED:          0	TO_CACHE:    7412150
LLC PQ	ACCESS:    2000477	FORWARD:          0	MERGED:          0	TO_CACHE:    2000477

LLC Dense regions hint to LLC: 0

RAW hits: 2701767
Loads Generated: 52249205
Loads sent to L1D: 49547438
Stores Generated: 36967899
Stores sent to L1D: 36967904
Major fault: 0 Minor fault: 96698
Allocated PAGES: 96698

DRAM Statistics
 CHANNEL 0
 RQ ROW_BUFFER_HIT:    1048662  ROW_BUFFER_MISS:    8570897
 DBUS_CONGESTED:          0
 WQ ROW_BUFFER_HIT:    1123725  ROW_BUFFER_MISS:    6081292  FULL:       2985

 AVG_CONGESTED_CYCLE: -
 All warmup complete: 2
Channel 0 Bank busy for read cycles: 0
Channel 0 Bank busy for write cycles: 0
Channel 0
Rank 0
0banks busy for read cycles: 55464
0banks busy for write cycles: 0
1banks busy for read cycles: 4457337
1banks busy for write cycles: 713796
2banks busy for read cycles: 6388045
2banks busy for write cycles: 713794
3banks busy for read cycles: 11459105
3banks busy for write cycles: 713791
4banks busy for read cycles: 18272174
4banks busy for write cycles: 713776
5banks busy for read cycles: 36360746
5banks busy for write cycles: 713853
6banks busy for read cycles: 48395021
6banks busy for write cycles: 739318
7banks busy for read cycles: 59009189
7banks busy for write cycles: 8630977
8banks busy for read cycles: 65497984
8banks busy for write cycles: 157580798

CPU 0 Branch Prediction Accuracy: 96.5207% MPKI: 0.525665 Average ROB Occupancy at Mispredict: 191.758
Branch types
NOT_BRANCH: 196385391 98.1927%
BRANCH_DIRECT_JUMP: 592790 0.296395%
BRANCH_INDIRECT: 0 0%
BRANCH_CONDITIONAL: 3021643 1.51082%
BRANCH_DIRECT_CALL: 0 0%
BRANCH_INDIRECT_CALL: 0 0%
BRANCH_RETURN: 0 0%
BRANCH_OTHER: 0 0%

DRAM PAGES: 1048576
Allocated PAGES: 96698
