
*** ChampSim Multicore Out-of-Order Simulator ***

Warmup Instructions: 50000000
Simulation Instructions: 200000000
Number of CPUs: 1
LLC sets: 2048
LLC ways: 16
Off-chip DRAM Size: 4096 MB Channels: 1 Width: 64-bit Data Rate: 6400 MT/s
argv[0]: ./ChampSim/Berti/bin/multiperspective_perceptron8kb-no-vberti-no-no-no-no-no-lru-lru-lru-srrip-drrip-lru-lru-lru-1core-no
argv[1]: -warmup_instructions
argv[2]: 50000000
argv[3]: -simulation_instructions
argv[4]: 200000000
argv[5]: -traces
argv[6]: traces/spec2k17_ten/603.bwaves_s-5359B.champsimtrace.xz
CPU 0 runs traces/spec2k17_ten/603.bwaves_s-5359B.champsimtrace.xz
.xz
CPU 0 Multiperspective perceptron branch predictor
BTB has LRU replacement policy
ITLB has LRU replacement policy
DTLB has LRU replacement policy
STLB has LRU replacement policy
L1I has LRU replacement policy
History Sets: 8
History Ways: 16
BERTI Size: 16
BERTI Stride Size: 16
L1D has LRU replacement policy
Initialize SRRIP state for L2C
Initialize DRRIP state for LLC
Heartbeat CPU 0 instructions: 10000002 cycles: 2975993 heartbeat IPC: 3.36022 cumulative IPC: 3.36022 (Simulation time: 0 hr 6 min 15 sec) 
Heartbeat CPU 0 instructions: 20000003 cycles: 5903155 heartbeat IPC: 3.41628 cumulative IPC: 3.38802 (Simulation time: 0 hr 8 min 28 sec) 
Heartbeat CPU 0 instructions: 30000000 cycles: 8862852 heartbeat IPC: 3.37872 cumulative IPC: 3.38491 (Simulation time: 0 hr 10 min 17 sec) 
Heartbeat CPU 0 instructions: 40000000 cycles: 11837765 heartbeat IPC: 3.36144 cumulative IPC: 3.37902 (Simulation time: 0 hr 12 min 46 sec) 
Heartbeat CPU 0 instructions: 50000002 cycles: 14813147 heartbeat IPC: 3.36091 cumulative IPC: 3.37538 (Simulation time: 0 hr 16 min 28 sec) 

Warmup complete CPU 0 instructions: 50000002 cycles: 14813147 (Simulation time: 0 hr 16 min 28 sec) 

Heartbeat CPU 0 instructions: 60000001 cycles: 26794037 heartbeat IPC: 0.834662 cumulative IPC: 0.834662 (Simulation time: 0 hr 19 min 44 sec) 
Heartbeat CPU 0 instructions: 70000000 cycles: 38795328 heartbeat IPC: 0.833244 cumulative IPC: 0.833952 (Simulation time: 0 hr 23 min 40 sec) 
Heartbeat CPU 0 instructions: 80000001 cycles: 50794985 heartbeat IPC: 0.833357 cumulative IPC: 0.833754 (Simulation time: 0 hr 27 min 44 sec) 
Heartbeat CPU 0 instructions: 90000002 cycles: 62790509 heartbeat IPC: 0.833644 cumulative IPC: 0.833727 (Simulation time: 0 hr 32 min 41 sec) 
Heartbeat CPU 0 instructions: 100000001 cycles: 74783125 heartbeat IPC: 0.833846 cumulative IPC: 0.83375 (Simulation time: 0 hr 36 min 21 sec) 
Heartbeat CPU 0 instructions: 110000000 cycles: 86784122 heartbeat IPC: 0.833264 cumulative IPC: 0.833669 (Simulation time: 0 hr 40 min 7 sec) 
Heartbeat CPU 0 instructions: 120000003 cycles: 98801999 heartbeat IPC: 0.832094 cumulative IPC: 0.833444 (Simulation time: 0 hr 43 min 58 sec) 
Heartbeat CPU 0 instructions: 130000001 cycles: 110834741 heartbeat IPC: 0.831066 cumulative IPC: 0.833146 (Simulation time: 0 hr 46 min 49 sec) 
Heartbeat CPU 0 instructions: 140000001 cycles: 122844449 heartbeat IPC: 0.83266 cumulative IPC: 0.833092 (Simulation time: 0 hr 53 min 19 sec) 
Heartbeat CPU 0 instructions: 150000000 cycles: 134854312 heartbeat IPC: 0.832649 cumulative IPC: 0.833048 (Simulation time: 0 hr 58 min 50 sec) 
Heartbeat CPU 0 instructions: 160000003 cycles: 146939976 heartbeat IPC: 0.827427 cumulative IPC: 0.832533 (Simulation time: 1 hr 5 min 27 sec) 
Heartbeat CPU 0 instructions: 170000000 cycles: 159017476 heartbeat IPC: 0.827986 cumulative IPC: 0.832153 (Simulation time: 1 hr 11 min 35 sec) 
Heartbeat CPU 0 instructions: 180000001 cycles: 171123039 heartbeat IPC: 0.826067 cumulative IPC: 0.831681 (Simulation time: 1 hr 14 min 50 sec) 
Heartbeat CPU 0 instructions: 190000002 cycles: 183232497 heartbeat IPC: 0.825801 cumulative IPC: 0.831258 (Simulation time: 1 hr 17 min 4 sec) 
Heartbeat CPU 0 instructions: 200000000 cycles: 195442782 heartbeat IPC: 0.818982 cumulative IPC: 0.830428 (Simulation time: 1 hr 19 min 55 sec) 
Heartbeat CPU 0 instructions: 210000000 cycles: 207636076 heartbeat IPC: 0.820123 cumulative IPC: 0.829777 (Simulation time: 1 hr 25 min 55 sec) 
Heartbeat CPU 0 instructions: 220000000 cycles: 219847677 heartbeat IPC: 0.818893 cumulative IPC: 0.829129 (Simulation time: 1 hr 31 min 1 sec) 
Heartbeat CPU 0 instructions: 230000002 cycles: 231977745 heartbeat IPC: 0.824398 cumulative IPC: 0.828864 (Simulation time: 1 hr 33 min 53 sec) 
Heartbeat CPU 0 instructions: 240000001 cycles: 244096277 heartbeat IPC: 0.825182 cumulative IPC: 0.82867 (Simulation time: 1 hr 36 min 38 sec) 
Heartbeat CPU 0 instructions: 250000000 cycles: 256230364 heartbeat IPC: 0.824125 cumulative IPC: 0.828441 (Simulation time: 1 hr 39 min 43 sec) 
Finished CPU 0 instructions: 200000002 cycles: 241417218 cumulative IPC: 0.828441 (Simulation time: 1 hr 39 min 43 sec) 

ChampSim completed all CPUs

Region of Interest Statistics

CPU 0 cumulative IPC: 0.828441 instructions: 200000002 cycles: 241417218
ITLB TOTAL     ACCESS:   37476337  HIT:   37476337  MISS:          0  HIT %:        100  MISS %:          0   MPKI: 0
ITLB LOAD TRANSLATION ACCESS:   37476337  HIT:   37476337  MISS:          0  HIT %:        100  MISS %:          0   MPKI: 0
ITLB PREFETCH  REQUESTED:          0  ISSUED:          0  USEFUL:          0  USELESS:          0
ITLB USEFUL LOAD PREFETCHES:          0 PREFETCH ISSUED TO LOWER LEVEL:          0  ACCURACY: -nan
ITLB TIMELY PREFETCHES:          0 LATE PREFETCHES: 0 DROPPED PREFETCHES: 0
ITLB PREFETCHES SAME FILL-ORIGIN LEVEL: 0 DIFFERENT FILL-ORIGIN LEVEL: 0
ITLB AVERAGE MISS LATENCY: -nan cycles
ITLB RQ	ACCESS:   43610204	FORWARD:          0	MERGED:    6133868	TO_CACHE:   37476336

DTLB TOTAL     ACCESS:   27892288  HIT:   27892087  MISS:        201  HIT %:    99.9993  MISS %: 0.000720629   MPKI: 0.001005
DTLB LOAD TRANSLATION ACCESS:   27892288  HIT:   27892087  MISS:        201  HIT %:    99.9993  MISS %: 0.000720629   MPKI: 0.001005
DTLB PREFETCH  REQUESTED:          0  ISSUED:          0  USEFUL:          0  USELESS:          0
DTLB USEFUL LOAD PREFETCHES:          0 PREFETCH ISSUED TO LOWER LEVEL:          0  ACCURACY: -nan
DTLB TIMELY PREFETCHES:          0 LATE PREFETCHES: 0 DROPPED PREFETCHES: 0
DTLB PREFETCHES SAME FILL-ORIGIN LEVEL: 0 DIFFERENT FILL-ORIGIN LEVEL: 0
DTLB AVERAGE MISS LATENCY: 134.244 cycles
DTLB RQ	ACCESS:   38496649	FORWARD:          0	MERGED:   10603999	TO_CACHE:   27892650

STLB TOTAL     ACCESS:     551919  HIT:     551719  MISS:        200  HIT %:    99.9638  MISS %:  0.0362372   MPKI: 0.001
STLB LOAD TRANSLATION ACCESS:        201  HIT:          1  MISS:        200  HIT %:   0.497512  MISS %:    99.5025   MPKI: 0.001
STLB TRANSLATION FROM L1D PREFETCHER ACCESS:     551718  HIT:     551718  MISS:          0  HIT %:        100  MISS %:          0   MPKI: 0
STLB PREFETCH  REQUESTED:          0  ISSUED:          0  USEFUL:          0  USELESS:          0
STLB USEFUL LOAD PREFETCHES:          0 PREFETCH ISSUED TO LOWER LEVEL:          0  ACCURACY: -nan
STLB TIMELY PREFETCHES:          0 LATE PREFETCHES: 18 DROPPED PREFETCHES: 3144
STLB PREFETCHES SAME FILL-ORIGIN LEVEL: 0 DIFFERENT FILL-ORIGIN LEVEL: 0
STLB AVERAGE MISS LATENCY: 126.71 cycles
STLB RQ	ACCESS:     709061	FORWARD:          0	MERGED:     153967	TO_CACHE:     555094

STLB Hit, L1D data hit: 0
STLB Hit, L2C data hit: 0
STLB Hit, LLC data hit: 0
STLB Hit, LLC data miss: 0
STLB STLB hints to L2: 0
L1D TOTAL     ACCESS:   39074278  HIT:   39061213  MISS:      13065  HIT %:    99.9666  MISS %:  0.0334363   MPKI: 0.065325
L1D LOAD      ACCESS:   31182243  HIT:   31181925  MISS:        318  HIT %:     99.999  MISS %: 0.00101981   MPKI: 0.00159
L1D RFO       ACCESS:    7249787  HIT:    7238116  MISS:      11671  HIT %:     99.839  MISS %:   0.160984   MPKI: 0.058355
L1D PREFETCH  ACCESS:     642248  HIT:     641172  MISS:       1076  HIT %:    99.8325  MISS %:   0.167537   MPKI: 0.00538
L1D PREFETCH  REQUESTED:    1418476  ISSUED:    1417941  USEFUL:       1063  USELESS:         32
L1D USEFUL LOAD PREFETCHES:       1063 PREFETCH ISSUED TO LOWER LEVEL:      55838  ACCURACY: 1.90372
L1D TIMELY PREFETCHES:       1063 LATE PREFETCHES: 0 DROPPED PREFETCHES: 11730
L1D PREFETCHES SAME FILL-ORIGIN LEVEL: 1086 DIFFERENT FILL-ORIGIN LEVEL: 54752
L1D AVERAGE MISS LATENCY: 154.963 cycles
L1D RQ	ACCESS:   49652092	FORWARD:          0	MERGED:   18401195	TO_CACHE:   31182467
L1D WQ	ACCESS:    7419326	FORWARD:      68487	MERGED:     105144	TO_CACHE:    7314182
L1D PQ	ACCESS:     709081	FORWARD:          0	MERGED:        164	TO_CACHE:     708860

L1D UNIQUE REGIONS ACCESSED: 0
L1D REGIONS CONFLICTS: 0
L1D Cross Page Prefetch Requests: 111228
L1D Same Page Prefetch Requests: 908922
L1D ROI Sum of L1D PQ occupancy: 9998851
L1D PREFETCHES PUSHED FROM L2C: 0
L1I TOTAL     ACCESS:   43610204  HIT:   43610204  MISS:          0  HIT %:        100  MISS %:          0   MPKI: 0
L1I LOAD      ACCESS:   43610204  HIT:   43610204  MISS:          0  HIT %:        100  MISS %:          0   MPKI: 0
L1I PREFETCH  REQUESTED:          0  ISSUED:          0  USEFUL:          0  USELESS:          0
L1I USEFUL LOAD PREFETCHES:          0 PREFETCH ISSUED TO LOWER LEVEL:          0  ACCURACY: -nan
L1I TIMELY PREFETCHES:          0 LATE PREFETCHES: 0 DROPPED PREFETCHES: 0
L1I PREFETCHES SAME FILL-ORIGIN LEVEL: 0 DIFFERENT FILL-ORIGIN LEVEL: 0
L1I AVERAGE MISS LATENCY: -nan cycles
L1I RQ	ACCESS:   74437976	FORWARD:          0	MERGED:   30827772	TO_CACHE:   43610204

BTB TOTAL     ACCESS:   27912721  HIT:   27764857  MISS:     147864  HIT %:    99.4703  MISS %:   0.529737   MPKI: 0.73932
BTB BRANCH_DIRECT_JUMP	ACCESS:    2180748  HIT:    2180701  MISS:         47
BTB BRANCH_INDIRECT	ACCESS:      75362  HIT:      75359  MISS:          3
BTB BRANCH_CONDITIONAL	ACCESS:   25101520  HIT:   25101370  MISS:        150
BTB BRANCH_DIRECT_CALL	ACCESS:     277545  HIT:     277486  MISS:         59
BTB BRANCH_INDIRECT_CALL	ACCESS:          0  HIT:          0  MISS:          0
BTB BRANCH_RETURN	ACCESS:     277546  HIT:     129941  MISS:     147605
BTB BRANCH_OTHER ACCESS:          0  HIT:          0  MISS:          0

L2C TOTAL     ACCESS:      82336  HIT:      69433  MISS:      12903  HIT %:    84.3288  MISS %:    15.6712   MPKI: 0.064515
L2C LOAD      ACCESS:        318  HIT:        238  MISS:         80  HIT %:    74.8428  MISS %:    25.1572   MPKI: 0.0004
L2C DATA LOAD MPKI: 0.0004
L2C INSTRUCTION LOAD MPKI: 0
L2C RFO       ACCESS:      11661  HIT:       1447  MISS:      10214  HIT %:    12.4089  MISS %:    87.5911   MPKI: 0.05107
L2C PREFETCH  ACCESS:      55318  HIT:      52778  MISS:       2540  HIT %:    95.4084  MISS %:    4.59163   MPKI: 0.0127
L2C DATA PREFETCH MPKI: 0.0127
L2C INSTRUCTION PREFETCH MPKI: 0
L2C WRITEBACK ACCESS:      11677  HIT:      11635  MISS:         42  HIT %:    99.6403  MISS %:   0.359681   MPKI: 0.00021
L2C LOAD TRANSLATION ACCESS:        200  HIT:        186  MISS:         14  HIT %:         93  MISS %:          7   MPKI: 7e-05
L2C TRANSLATION FROM L1D PREFETCHER ACCESS:       3162  HIT:       3149  MISS:         13  HIT %:    99.5889  MISS %:   0.411132   MPKI: 6.5e-05
L2C PREFETCH  REQUESTED:          0  ISSUED:          0  USEFUL:       1494  USELESS:        906
L2C USEFUL LOAD PREFETCHES:       1494 PREFETCH ISSUED TO LOWER LEVEL:       3045  ACCURACY: 49.064
L2C TIMELY PREFETCHES:       1494 LATE PREFETCHES: 505 DROPPED PREFETCHES: 0
L2C PREFETCHES SAME FILL-ORIGIN LEVEL: 2893 DIFFERENT FILL-ORIGIN LEVEL: 0
L2C AVERAGE MISS LATENCY: 176.207 cycles
L2C RQ	ACCESS:      15341	FORWARD:          0	MERGED:          0	TO_CACHE:      15341
L2C WQ	ACCESS:      11677	FORWARD:          0	MERGED:          0	TO_CACHE:      11677
L2C PQ	ACCESS:      55838	FORWARD:          0	MERGED:          0	TO_CACHE:      55838

L2C Instructions Evicting Data 0
L2C Translations Evicting Data 27
L2C Data Evicting Data 12806
L2C Instructions Evicting Instructions 0
L2C Translations Evicting Instructions 0
L2C Data Evicting Instructions 2
L2C Instructions Evicting Translations 0
L2C Translations Evicting Translations 0
L2C Data Evicting Translations 26
L2C Dense regions hint from L2: 0
PSCL5 TOTAL     ACCESS:       3362  HIT:       3362  MISS:          0  HIT %:        100  MISS %:          0   MPKI: 0
PSCL5 LOAD TRANSLATION ACCESS:        200  HIT:        200  MISS:          0  HIT %:        100  MISS %:          0   MPKI: 0
PSCL5 TRANSLATION FROM L1D PREFETCHER ACCESS:       3162  HIT:       3162  MISS:          0  HIT %:        100  MISS %:          0   MPKI: 0
PSCL5 PREFETCH  REQUESTED:          0  ISSUED:          0  USEFUL:          0  USELESS:          0
PSCL5 USEFUL LOAD PREFETCHES:          0 PREFETCH ISSUED TO LOWER LEVEL:          0  ACCURACY: -nan
PSCL5 TIMELY PREFETCHES:          0 LATE PREFETCHES: 0 DROPPED PREFETCHES: 0
PSCL5 PREFETCHES SAME FILL-ORIGIN LEVEL: 0 DIFFERENT FILL-ORIGIN LEVEL: 0

PSCL4 TOTAL     ACCESS:       3362  HIT:       3362  MISS:          0  HIT %:        100  MISS %:          0   MPKI: 0
PSCL4 LOAD TRANSLATION ACCESS:        200  HIT:        200  MISS:          0  HIT %:        100  MISS %:          0   MPKI: 0
PSCL4 TRANSLATION FROM L1D PREFETCHER ACCESS:       3162  HIT:       3162  MISS:          0  HIT %:        100  MISS %:          0   MPKI: 0
PSCL4 PREFETCH  REQUESTED:          0  ISSUED:          0  USEFUL:          0  USELESS:          0
PSCL4 USEFUL LOAD PREFETCHES:          0 PREFETCH ISSUED TO LOWER LEVEL:          0  ACCURACY: -nan
PSCL4 TIMELY PREFETCHES:          0 LATE PREFETCHES: 0 DROPPED PREFETCHES: 0
PSCL4 PREFETCHES SAME FILL-ORIGIN LEVEL: 0 DIFFERENT FILL-ORIGIN LEVEL: 0

PSCL3 TOTAL     ACCESS:       3362  HIT:       3362  MISS:          0  HIT %:        100  MISS %:          0   MPKI: 0
PSCL3 LOAD TRANSLATION ACCESS:        200  HIT:        200  MISS:          0  HIT %:        100  MISS %:          0   MPKI: 0
PSCL3 TRANSLATION FROM L1D PREFETCHER ACCESS:       3162  HIT:       3162  MISS:          0  HIT %:        100  MISS %:          0   MPKI: 0
PSCL3 PREFETCH  REQUESTED:          0  ISSUED:          0  USEFUL:          0  USELESS:          0
PSCL3 USEFUL LOAD PREFETCHES:          0 PREFETCH ISSUED TO LOWER LEVEL:          0  ACCURACY: -nan
PSCL3 TIMELY PREFETCHES:          0 LATE PREFETCHES: 0 DROPPED PREFETCHES: 0
PSCL3 PREFETCHES SAME FILL-ORIGIN LEVEL: 0 DIFFERENT FILL-ORIGIN LEVEL: 0

PSCL2 TOTAL     ACCESS:       3362  HIT:       3362  MISS:          0  HIT %:        100  MISS %:          0   MPKI: 0
PSCL2 LOAD TRANSLATION ACCESS:        200  HIT:        200  MISS:          0  HIT %:        100  MISS %:          0   MPKI: 0
PSCL2 TRANSLATION FROM L1D PREFETCHER ACCESS:       3162  HIT:       3162  MISS:          0  HIT %:        100  MISS %:          0   MPKI: 0
PSCL2 PREFETCH  REQUESTED:          0  ISSUED:          0  USEFUL:          0  USELESS:          0
PSCL2 USEFUL LOAD PREFETCHES:          0 PREFETCH ISSUED TO LOWER LEVEL:          0  ACCURACY: -nan
PSCL2 TIMELY PREFETCHES:          0 LATE PREFETCHES: 0 DROPPED PREFETCHES: 0
PSCL2 PREFETCHES SAME FILL-ORIGIN LEVEL: 0 DIFFERENT FILL-ORIGIN LEVEL: 0

LLC TOTAL     ACCESS:      24673  HIT:      11644  MISS:      13029  HIT %:    47.1933  MISS %:    52.8067   MPKI: 0.065145
LLC LOAD      ACCESS:         80  HIT:          4  MISS:         76  HIT %:          5  MISS %:         95   MPKI: 0.00038
LLC RFO       ACCESS:       9709  HIT:          3  MISS:       9706  HIT %:  0.0308992  MISS %:    99.9691   MPKI: 0.04853
LLC PREFETCH  ACCESS:       3045  HIT:          6  MISS:       3039  HIT %:   0.197044  MISS %:     99.803   MPKI: 0.015195
LLC WRITEBACK ACCESS:      11812  HIT:      11630  MISS:        182  HIT %:    98.4592  MISS %:    1.54081   MPKI: 0.00091
LLC LOAD TRANSLATION ACCESS:         14  HIT:          1  MISS:         13  HIT %:    7.14286  MISS %:    92.8571   MPKI: 6.5e-05
LLC TRANSLATION FROM L1D PREFETCHER ACCESS:         13  HIT:          0  MISS:         13  HIT %:          0  MISS %:        100   MPKI: 6.5e-05
LLC PREFETCH  REQUESTED:          0  ISSUED:          0  USEFUL:          3  USELESS:        850
LLC USEFUL LOAD PREFETCHES:          3 PREFETCH ISSUED TO LOWER LEVEL:       3039  ACCURACY: 0.0987167
LLC TIMELY PREFETCHES:          3 LATE PREFETCHES: 0 DROPPED PREFETCHES: 0
LLC PREFETCHES SAME FILL-ORIGIN LEVEL: 0 DIFFERENT FILL-ORIGIN LEVEL: 0
LLC AVERAGE MISS LATENCY: 144.739 cycles
LLC RQ	ACCESS:       9816	FORWARD:          0	MERGED:          0	TO_CACHE:       9816
LLC WQ	ACCESS:      11812	FORWARD:          0	MERGED:          0	TO_CACHE:      11812
LLC PQ	ACCESS:       3045	FORWARD:          0	MERGED:          0	TO_CACHE:       3045

LLC Dense regions hint to LLC: 0

RAW hits: 386811
Loads Generated: 50038903
Loads sent to L1D: 49652092
Stores Generated: 7419323
Stores sent to L1D: 7419326
Major fault: 0 Minor fault: 723
Allocated PAGES: 723

DRAM Statistics
 CHANNEL 0
 RQ ROW_BUFFER_HIT:       4025  ROW_BUFFER_MISS:       8822
 DBUS_CONGESTED:          3
 WQ ROW_BUFFER_HIT:        728  ROW_BUFFER_MISS:       8624  FULL:          0

 AVG_CONGESTED_CYCLE: 2
 All warmup complete: 2
Channel 0 Bank busy for read cycles: 0
Channel 0 Bank busy for write cycles: 0
Channel 0
Rank 0
0banks busy for read cycles: 240127600
0banks busy for write cycles: 2759
1banks busy for read cycles: 311632
1banks busy for write cycles: 97895
2banks busy for read cycles: 257043
2banks busy for write cycles: 104650
3banks busy for read cycles: 186171
3banks busy for write cycles: 227763
4banks busy for read cycles: 10057
4banks busy for write cycles: 52600
5banks busy for read cycles: 4632
5banks busy for write cycles: 7481
6banks busy for read cycles: 4202
6banks busy for write cycles: 5066
7banks busy for read cycles: 2960
7banks busy for write cycles: 2871
8banks busy for read cycles: 3878
8banks busy for write cycles: 7959

CPU 0 Branch Prediction Accuracy: 99.8727% MPKI: 0.16747 Average ROB Occupancy at Mispredict: 89.6986
Branch types
NOT_BRANCH: 170868137 85.4341%
BRANCH_DIRECT_JUMP: 2180748 1.09037%
BRANCH_INDIRECT: 75362 0.037681%
BRANCH_CONDITIONAL: 26320336 13.1602%
BRANCH_DIRECT_CALL: 277545 0.138772%
BRANCH_INDIRECT_CALL: 0 0%
BRANCH_RETURN: 277546 0.138773%
BRANCH_OTHER: 0 0%

DRAM PAGES: 1048576
Allocated PAGES: 723
