
*** ChampSim Multicore Out-of-Order Simulator ***

Warmup Instructions: 50000000
Simulation Instructions: 200000000
Number of CPUs: 1
LLC sets: 2048
LLC ways: 16
Off-chip DRAM Size: 4096 MB Channels: 1 Width: 64-bit Data Rate: 6400 MT/s
argv[0]: ./ChampSim/Berti/bin/multiperspective_perceptron8kb-no-vberti-no-no-no-no-no-lru-lru-lru-srrip-drrip-lru-lru-lru-1core-no
argv[1]: -warmup_instructions
argv[2]: 50000000
argv[3]: -simulation_instructions
argv[4]: 200000000
argv[5]: -traces
argv[6]: traces/spec2k17_ten/603.bwaves_s-891B.champsimtrace.xz
CPU 0 runs traces/spec2k17_ten/603.bwaves_s-891B.champsimtrace.xz
.xz
CPU 0 Multiperspective perceptron branch predictor
BTB has LRU replacement policy
ITLB has LRU replacement policy
DTLB has LRU replacement policy
STLB has LRU replacement policy
L1I has LRU replacement policy
History Sets: 8
History Ways: 16
BERTI Size: 16
BERTI Stride Size: 16
L1D has LRU replacement policy
Initialize SRRIP state for L2C
Initialize DRRIP state for LLC
Heartbeat CPU 0 instructions: 10000003 cycles: 2715418 heartbeat IPC: 3.68268 cumulative IPC: 3.68268 (Simulation time: 0 hr 8 min 11 sec) 
Heartbeat CPU 0 instructions: 20000003 cycles: 5430814 heartbeat IPC: 3.6827 cumulative IPC: 3.68269 (Simulation time: 0 hr 12 min 7 sec) 
Heartbeat CPU 0 instructions: 30000002 cycles: 8146207 heartbeat IPC: 3.68271 cumulative IPC: 3.6827 (Simulation time: 0 hr 17 min 29 sec) 
Heartbeat CPU 0 instructions: 40000000 cycles: 10861602 heartbeat IPC: 3.6827 cumulative IPC: 3.6827 (Simulation time: 0 hr 21 min 9 sec) 
Heartbeat CPU 0 instructions: 50000002 cycles: 13778244 heartbeat IPC: 3.4286 cumulative IPC: 3.62891 (Simulation time: 0 hr 24 min 11 sec) 

Warmup complete CPU 0 instructions: 50000002 cycles: 13778244 (Simulation time: 0 hr 24 min 11 sec) 

Heartbeat CPU 0 instructions: 60000001 cycles: 27529056 heartbeat IPC: 0.72723 cumulative IPC: 0.72723 (Simulation time: 0 hr 29 min 22 sec) 
Heartbeat CPU 0 instructions: 70000001 cycles: 41280255 heartbeat IPC: 0.727209 cumulative IPC: 0.72722 (Simulation time: 0 hr 35 min 8 sec) 
Heartbeat CPU 0 instructions: 80000002 cycles: 55031603 heartbeat IPC: 0.727202 cumulative IPC: 0.727214 (Simulation time: 0 hr 40 min 13 sec) 
Heartbeat CPU 0 instructions: 90000001 cycles: 68782543 heartbeat IPC: 0.727223 cumulative IPC: 0.727216 (Simulation time: 0 hr 47 min 1 sec) 
Heartbeat CPU 0 instructions: 100000000 cycles: 82533351 heartbeat IPC: 0.72723 cumulative IPC: 0.727219 (Simulation time: 0 hr 54 min 0 sec) 
Heartbeat CPU 0 instructions: 110000000 cycles: 96284478 heartbeat IPC: 0.727213 cumulative IPC: 0.727218 (Simulation time: 1 hr 1 min 18 sec) 
Heartbeat CPU 0 instructions: 120000001 cycles: 110035411 heartbeat IPC: 0.727223 cumulative IPC: 0.727219 (Simulation time: 1 hr 9 min 32 sec) 
Heartbeat CPU 0 instructions: 130000000 cycles: 123786074 heartbeat IPC: 0.727238 cumulative IPC: 0.727221 (Simulation time: 1 hr 16 min 23 sec) 
Heartbeat CPU 0 instructions: 140000001 cycles: 137537682 heartbeat IPC: 0.727188 cumulative IPC: 0.727217 (Simulation time: 1 hr 21 min 14 sec) 
Heartbeat CPU 0 instructions: 150000000 cycles: 151289064 heartbeat IPC: 0.7272 cumulative IPC: 0.727215 (Simulation time: 1 hr 27 min 21 sec) 
Heartbeat CPU 0 instructions: 160000000 cycles: 165040396 heartbeat IPC: 0.727202 cumulative IPC: 0.727214 (Simulation time: 1 hr 33 min 29 sec) 
Heartbeat CPU 0 instructions: 170000000 cycles: 178713275 heartbeat IPC: 0.731375 cumulative IPC: 0.727559 (Simulation time: 1 hr 39 min 8 sec) 
Heartbeat CPU 0 instructions: 180000001 cycles: 192228549 heartbeat IPC: 0.739904 cumulative IPC: 0.728494 (Simulation time: 1 hr 43 min 49 sec) 
Heartbeat CPU 0 instructions: 190000002 cycles: 205637688 heartbeat IPC: 0.74576 cumulative IPC: 0.729701 (Simulation time: 1 hr 49 min 55 sec) 
Heartbeat CPU 0 instructions: 200000002 cycles: 218912467 heartbeat IPC: 0.753308 cumulative IPC: 0.731229 (Simulation time: 1 hr 56 min 20 sec) 
Heartbeat CPU 0 instructions: 210000002 cycles: 232187020 heartbeat IPC: 0.753321 cumulative IPC: 0.732571 (Simulation time: 2 hr 2 min 16 sec) 
Heartbeat CPU 0 instructions: 220000000 cycles: 245462132 heartbeat IPC: 0.753289 cumulative IPC: 0.733758 (Simulation time: 2 hr 7 min 58 sec) 
Heartbeat CPU 0 instructions: 230000000 cycles: 258736616 heartbeat IPC: 0.753325 cumulative IPC: 0.734819 (Simulation time: 2 hr 13 min 20 sec) 
Heartbeat CPU 0 instructions: 240000000 cycles: 272011632 heartbeat IPC: 0.753295 cumulative IPC: 0.735768 (Simulation time: 2 hr 20 min 20 sec) 
Heartbeat CPU 0 instructions: 250000000 cycles: 285286573 heartbeat IPC: 0.753299 cumulative IPC: 0.736626 (Simulation time: 2 hr 28 min 59 sec) 
Finished CPU 0 instructions: 200000002 cycles: 271508330 cumulative IPC: 0.736626 (Simulation time: 2 hr 28 min 59 sec) 

ChampSim completed all CPUs

Region of Interest Statistics

CPU 0 cumulative IPC: 0.736626 instructions: 200000002 cycles: 271508330
ITLB TOTAL     ACCESS:   33459499  HIT:   33459498  MISS:          1  HIT %:        100  MISS %: 2.98869e-06   MPKI: 5e-06
ITLB LOAD TRANSLATION ACCESS:   33459499  HIT:   33459498  MISS:          1  HIT %:        100  MISS %: 2.98869e-06   MPKI: 5e-06
ITLB PREFETCH  REQUESTED:          0  ISSUED:          0  USEFUL:          0  USELESS:          0
ITLB USEFUL LOAD PREFETCHES:          0 PREFETCH ISSUED TO LOWER LEVEL:          0  ACCURACY: -nan
ITLB TIMELY PREFETCHES:          0 LATE PREFETCHES: 0 DROPPED PREFETCHES: 0
ITLB PREFETCHES SAME FILL-ORIGIN LEVEL: 0 DIFFERENT FILL-ORIGIN LEVEL: 0
ITLB AVERAGE MISS LATENCY: 431 cycles
ITLB RQ	ACCESS:   36235081	FORWARD:          0	MERGED:    2775581	TO_CACHE:   33459500

DTLB TOTAL     ACCESS:   24337198  HIT:   24276544  MISS:      60654  HIT %:    99.7508  MISS %:   0.249223   MPKI: 0.30327
DTLB LOAD TRANSLATION ACCESS:   24337198  HIT:   24276544  MISS:      60654  HIT %:    99.7508  MISS %:   0.249223   MPKI: 0.30327
DTLB PREFETCH  REQUESTED:          0  ISSUED:          0  USEFUL:          0  USELESS:          0
DTLB USEFUL LOAD PREFETCHES:          0 PREFETCH ISSUED TO LOWER LEVEL:          0  ACCURACY: -nan
DTLB TIMELY PREFETCHES:          0 LATE PREFETCHES: 0 DROPPED PREFETCHES: 0
DTLB PREFETCHES SAME FILL-ORIGIN LEVEL: 0 DIFFERENT FILL-ORIGIN LEVEL: 0
DTLB AVERAGE MISS LATENCY: 86.0037 cycles
DTLB RQ	ACCESS:   24808800	FORWARD:          0	MERGED:     466661	TO_CACHE:   24342139

STLB TOTAL     ACCESS:   15069340  HIT:   15009022  MISS:      60318  HIT %:    99.5997  MISS %:    0.40027   MPKI: 0.30159
STLB LOAD TRANSLATION ACCESS:      60655  HIT:      18563  MISS:      42092  HIT %:    30.6042  MISS %:    69.3958   MPKI: 0.21046
STLB TRANSLATION FROM L1D PREFETCHER ACCESS:   15008685  HIT:   14990459  MISS:      18226  HIT %:    99.8786  MISS %:   0.121436   MPKI: 0.09113
STLB PREFETCH  REQUESTED:          0  ISSUED:          0  USEFUL:      18226  USELESS:          0
STLB USEFUL LOAD PREFETCHES:      18226 PREFETCH ISSUED TO LOWER LEVEL:          0  ACCURACY: inf
STLB TIMELY PREFETCHES:      18226 LATE PREFETCHES: 12021 DROPPED PREFETCHES: 1223762
STLB PREFETCHES SAME FILL-ORIGIN LEVEL: 0 DIFFERENT FILL-ORIGIN LEVEL: 0
STLB AVERAGE MISS LATENCY: 97.2778 cycles
STLB RQ	ACCESS:  104616710	FORWARD:          0	MERGED:   88140118	TO_CACHE:   16476592

STLB Hit, L1D data hit: 0
STLB Hit, L2C data hit: 0
STLB Hit, LLC data hit: 0
STLB Hit, LLC data miss: 0
STLB STLB hints to L2: 0
L1D TOTAL     ACCESS:  111694183  HIT:  107833074  MISS:    3861109  HIT %:    96.5431  MISS %:    3.45686   MPKI: 19.3055
L1D LOAD      ACCESS:   21297118  HIT:   21214509  MISS:      82609  HIT %:    99.6121  MISS %:   0.387888   MPKI: 0.413045
L1D RFO       ACCESS:    3343236  HIT:    3343234  MISS:          2  HIT %:    99.9999  MISS %: 5.98223e-05   MPKI: 1e-05
L1D PREFETCH  ACCESS:   87053829  HIT:   83275331  MISS:    3778498  HIT %:    95.6596  MISS %:    4.34042   MPKI: 18.8925
L1D PREFETCH  REQUESTED:  242447340  ISSUED:  229282275  USEFUL:    3778472  USELESS:         16
L1D USEFUL LOAD PREFETCHES:    3778472 PREFETCH ISSUED TO LOWER LEVEL:    8028533  ACCURACY: 47.063
L1D TIMELY PREFETCHES:    3778472 LATE PREFETCHES: 41619 DROPPED PREFETCHES: 3698153
L1D PREFETCHES SAME FILL-ORIGIN LEVEL: 3820122 DIFFERENT FILL-ORIGIN LEVEL: 4208411
L1D AVERAGE MISS LATENCY: 138.091 cycles
L1D RQ	ACCESS:   35804809	FORWARD:          0	MERGED:   14339244	TO_CACHE:   21465565
L1D WQ	ACCESS:    3375822	FORWARD:          0	MERGED:      32587	TO_CACHE:    3343235
L1D PQ	ACCESS:  124726220	FORWARD:          0	MERGED:   20170165	TO_CACHE:  104556055

L1D UNIQUE REGIONS ACCESSED: 0
L1D REGIONS CONFLICTS: 0
L1D Cross Page Prefetch Requests: 13929046
L1D Same Page Prefetch Requests: 140654326
L1D ROI Sum of L1D PQ occupancy: 1680330186
L1D PREFETCHES PUSHED FROM L2C: 0
L1I TOTAL     ACCESS:   36235079  HIT:   36235072  MISS:          7  HIT %:        100  MISS %: 1.93183e-05   MPKI: 3.5e-05
L1I LOAD      ACCESS:   36235079  HIT:   36235072  MISS:          7  HIT %:        100  MISS %: 1.93183e-05   MPKI: 3.5e-05
L1I PREFETCH  REQUESTED:          0  ISSUED:          0  USEFUL:          0  USELESS:          0
L1I USEFUL LOAD PREFETCHES:          0 PREFETCH ISSUED TO LOWER LEVEL:          0  ACCURACY: -nan
L1I TIMELY PREFETCHES:          0 LATE PREFETCHES: 0 DROPPED PREFETCHES: 0
L1I PREFETCHES SAME FILL-ORIGIN LEVEL: 0 DIFFERENT FILL-ORIGIN LEVEL: 0
L1I AVERAGE MISS LATENCY: 214.143 cycles
L1I RQ	ACCESS:   45256595	FORWARD:          0	MERGED:    9021514	TO_CACHE:   36235081

BTB TOTAL     ACCESS:   30088189  HIT:   30088178  MISS:         11  HIT %:        100  MISS %: 3.65592e-05   MPKI: 5.5e-05
BTB BRANCH_DIRECT_JUMP	ACCESS:    1387292  HIT:    1387290  MISS:          2
BTB BRANCH_INDIRECT	ACCESS:          0  HIT:          0  MISS:          0
BTB BRANCH_CONDITIONAL	ACCESS:   28700897  HIT:   28700888  MISS:          9
BTB BRANCH_DIRECT_CALL	ACCESS:          0  HIT:          0  MISS:          0
BTB BRANCH_INDIRECT_CALL	ACCESS:          0  HIT:          0  MISS:          0
BTB BRANCH_RETURN	ACCESS:          0  HIT:          0  MISS:          0
BTB BRANCH_OTHER ACCESS:          0  HIT:          0  MISS:          0

L2C TOTAL     ACCESS:    7528117  HIT:    3659666  MISS:    3868451  HIT %:    48.6133  MISS %:    51.3867   MPKI: 19.3423
L2C LOAD      ACCESS:      40997  HIT:       3284  MISS:      37713  HIT %:    8.01034  MISS %:    91.9897   MPKI: 0.188565
L2C DATA LOAD MPKI: 0.18853
L2C INSTRUCTION LOAD MPKI: 3.5e-05
L2C RFO       ACCESS:          2  HIT:          0  MISS:          2  HIT %:          0  MISS %:        100   MPKI: 1e-05
L2C PREFETCH  ACCESS:    6190952  HIT:    2367882  MISS:    3823070  HIT %:    38.2475  MISS %:    61.7525   MPKI: 19.1153
L2C DATA PREFETCH MPKI: 19.1153
L2C INSTRUCTION PREFETCH MPKI: 0
L2C WRITEBACK ACCESS:          4  HIT:          1  MISS:          3  HIT %:         25  MISS %:         75   MPKI: 1.5e-05
L2C LOAD TRANSLATION ACCESS:      42096  HIT:      42090  MISS:          6  HIT %:    99.9857  MISS %:  0.0142531   MPKI: 3e-05
L2C TRANSLATION FROM L1D PREFETCHER ACCESS:    1254066  HIT:    1246409  MISS:       7657  HIT %:    99.3894  MISS %:   0.610574   MPKI: 0.038285
L2C PREFETCH  REQUESTED:          0  ISSUED:          0  USEFUL:      10575  USELESS:    3820202
L2C USEFUL LOAD PREFETCHES:      10575 PREFETCH ISSUED TO LOWER LEVEL:    3827543  ACCURACY: 0.276287
L2C TIMELY PREFETCHES:      10575 LATE PREFETCHES: 4468 DROPPED PREFETCHES: 0
L2C PREFETCHES SAME FILL-ORIGIN LEVEL: 791065 DIFFERENT FILL-ORIGIN LEVEL: 0
L2C AVERAGE MISS LATENCY: 149.957 cycles
L2C RQ	ACCESS:    1337161	FORWARD:          0	MERGED:          0	TO_CACHE:    1337161
L2C WQ	ACCESS:          4	FORWARD:          0	MERGED:          0	TO_CACHE:          4
L2C PQ	ACCESS:    8028533	FORWARD:          0	MERGED:          0	TO_CACHE:    8028533

L2C Instructions Evicting Data 7
L2C Translations Evicting Data 7649
L2C Data Evicting Data 3853119
L2C Instructions Evicting Instructions 0
L2C Translations Evicting Instructions 0
L2C Data Evicting Instructions 7
L2C Instructions Evicting Translations 0
L2C Translations Evicting Translations 14
L2C Data Evicting Translations 7652
L2C Dense regions hint from L2: 0
PSCL5 TOTAL     ACCESS:    1296101  HIT:    1296101  MISS:          0  HIT %:        100  MISS %:          0   MPKI: 0
PSCL5 LOAD TRANSLATION ACCESS:      42092  HIT:      42092  MISS:          0  HIT %:        100  MISS %:          0   MPKI: 0
PSCL5 TRANSLATION FROM L1D PREFETCHER ACCESS:    1254009  HIT:    1254009  MISS:          0  HIT %:        100  MISS %:          0   MPKI: 0
PSCL5 PREFETCH  REQUESTED:          0  ISSUED:          0  USEFUL:          0  USELESS:          0
PSCL5 USEFUL LOAD PREFETCHES:          0 PREFETCH ISSUED TO LOWER LEVEL:          0  ACCURACY: -nan
PSCL5 TIMELY PREFETCHES:          0 LATE PREFETCHES: 0 DROPPED PREFETCHES: 0
PSCL5 PREFETCHES SAME FILL-ORIGIN LEVEL: 0 DIFFERENT FILL-ORIGIN LEVEL: 0

PSCL4 TOTAL     ACCESS:    1296101  HIT:    1296101  MISS:          0  HIT %:        100  MISS %:          0   MPKI: 0
PSCL4 LOAD TRANSLATION ACCESS:      42092  HIT:      42092  MISS:          0  HIT %:        100  MISS %:          0   MPKI: 0
PSCL4 TRANSLATION FROM L1D PREFETCHER ACCESS:    1254009  HIT:    1254009  MISS:          0  HIT %:        100  MISS %:          0   MPKI: 0
PSCL4 PREFETCH  REQUESTED:          0  ISSUED:          0  USEFUL:          0  USELESS:          0
PSCL4 USEFUL LOAD PREFETCHES:          0 PREFETCH ISSUED TO LOWER LEVEL:          0  ACCURACY: -nan
PSCL4 TIMELY PREFETCHES:          0 LATE PREFETCHES: 0 DROPPED PREFETCHES: 0
PSCL4 PREFETCHES SAME FILL-ORIGIN LEVEL: 0 DIFFERENT FILL-ORIGIN LEVEL: 0

PSCL3 TOTAL     ACCESS:    1296101  HIT:    1296101  MISS:          0  HIT %:        100  MISS %:          0   MPKI: 0
PSCL3 LOAD TRANSLATION ACCESS:      42092  HIT:      42092  MISS:          0  HIT %:        100  MISS %:          0   MPKI: 0
PSCL3 TRANSLATION FROM L1D PREFETCHER ACCESS:    1254009  HIT:    1254009  MISS:          0  HIT %:        100  MISS %:          0   MPKI: 0
PSCL3 PREFETCH  REQUESTED:          0  ISSUED:          0  USEFUL:          0  USELESS:          0
PSCL3 USEFUL LOAD PREFETCHES:          0 PREFETCH ISSUED TO LOWER LEVEL:          0  ACCURACY: -nan
PSCL3 TIMELY PREFETCHES:          0 LATE PREFETCHES: 0 DROPPED PREFETCHES: 0
PSCL3 PREFETCHES SAME FILL-ORIGIN LEVEL: 0 DIFFERENT FILL-ORIGIN LEVEL: 0

PSCL2 TOTAL     ACCESS:    1293816  HIT:    1293696  MISS:        120  HIT %:    99.9907  MISS %: 0.00927489   MPKI: 0.0006
PSCL2 LOAD TRANSLATION ACCESS:      42127  HIT:      42007  MISS:        120  HIT %:    99.7151  MISS %:   0.284853   MPKI: 0.0006
PSCL2 TRANSLATION FROM L1D PREFETCHER ACCESS:    1251689  HIT:    1251689  MISS:          0  HIT %:        100  MISS %:          0   MPKI: 0
PSCL2 PREFETCH  REQUESTED:          0  ISSUED:          0  USEFUL:          0  USELESS:          0
PSCL2 USEFUL LOAD PREFETCHES:          0 PREFETCH ISSUED TO LOWER LEVEL:          0  ACCURACY: -nan
PSCL2 TIMELY PREFETCHES:          0 LATE PREFETCHES: 0 DROPPED PREFETCHES: 0
PSCL2 PREFETCHES SAME FILL-ORIGIN LEVEL: 0 DIFFERENT FILL-ORIGIN LEVEL: 0

LLC TOTAL     ACCESS:    3868452  HIT:        583  MISS:    3867869  HIT %:  0.0150706  MISS %:    99.9849   MPKI: 19.3393
LLC LOAD      ACCESS:      33245  HIT:        536  MISS:      32709  HIT %:    1.61227  MISS %:    98.3877   MPKI: 0.163545
LLC RFO       ACCESS:          2  HIT:          0  MISS:          2  HIT %:          0  MISS %:        100   MPKI: 1e-05
LLC PREFETCH  ACCESS:    3827538  HIT:          7  MISS:    3827531  HIT %: 0.000182885  MISS %:    99.9998   MPKI: 19.1377
LLC WRITEBACK ACCESS:          4  HIT:          1  MISS:          3  HIT %:         25  MISS %:         75   MPKI: 1.5e-05
LLC LOAD TRANSLATION ACCESS:          6  HIT:          0  MISS:          6  HIT %:          0  MISS %:        100   MPKI: 3e-05
LLC TRANSLATION FROM L1D PREFETCHER ACCESS:       7657  HIT:         39  MISS:       7618  HIT %:   0.509338  MISS %:    99.4907   MPKI: 0.03809
LLC PREFETCH  REQUESTED:          0  ISSUED:          0  USEFUL:          7  USELESS:    3834673
LLC USEFUL LOAD PREFETCHES:          7 PREFETCH ISSUED TO LOWER LEVEL:    3827536  ACCURACY: 0.000182885
LLC TIMELY PREFETCHES:          7 LATE PREFETCHES: 0 DROPPED PREFETCHES: 0
LLC PREFETCHES SAME FILL-ORIGIN LEVEL: 0 DIFFERENT FILL-ORIGIN LEVEL: 0
LLC AVERAGE MISS LATENCY: 119.817 cycles
LLC RQ	ACCESS:      40910	FORWARD:          0	MERGED:          0	TO_CACHE:      40910
LLC WQ	ACCESS:          4	FORWARD:          0	MERGED:          0	TO_CACHE:          4
LLC PQ	ACCESS:    3827543	FORWARD:          0	MERGED:          0	TO_CACHE:    3827543

LLC Dense regions hint to LLC: 0

RAW hits: 1
Loads Generated: 35804810
Loads sent to L1D: 35804809
Stores Generated: 3375822
Stores sent to L1D: 3375822
Major fault: 0 Minor fault: 62153
Allocated PAGES: 62153

DRAM Statistics
 CHANNEL 0
 RQ ROW_BUFFER_HIT:    2725452  ROW_BUFFER_MISS:    1142414
 DBUS_CONGESTED:        784
 WQ ROW_BUFFER_HIT:          8  ROW_BUFFER_MISS:        406  FULL:          0

 AVG_CONGESTED_CYCLE: 2
 All warmup complete: 2
Channel 0 Bank busy for read cycles: 0
Channel 0 Bank busy for write cycles: 0
Channel 0
Rank 0
0banks busy for read cycles: 106644727
0banks busy for write cycles: 413
1banks busy for read cycles: 89692934
1banks busy for write cycles: 961283
2banks busy for read cycles: 33661519
2banks busy for write cycles: 311
3banks busy for read cycles: 26743411
3banks busy for write cycles: 0
4banks busy for read cycles: 8993413
4banks busy for write cycles: 0
5banks busy for read cycles: 1088685
5banks busy for write cycles: 0
6banks busy for read cycles: 232245
6banks busy for write cycles: 0
7banks busy for read cycles: 308114
7banks busy for write cycles: 0
8banks busy for read cycles: 3181276
8banks busy for write cycles: 0

CPU 0 Branch Prediction Accuracy: 99.8613% MPKI: 0.22286 Average ROB Occupancy at Mispredict: 23.528
Branch types
NOT_BRANCH: 166478363 83.2392%
BRANCH_DIRECT_JUMP: 1387292 0.693646%
BRANCH_INDIRECT: 0 0%
BRANCH_CONDITIONAL: 32134349 16.0672%
BRANCH_DIRECT_CALL: 0 0%
BRANCH_INDIRECT_CALL: 0 0%
BRANCH_RETURN: 0 0%
BRANCH_OTHER: 0 0%

DRAM PAGES: 1048576
Allocated PAGES: 62153
