 (TOTAL 523355 bits 511 Kbits) 
*** ChampSim Multicore Out-of-Order Simulator ***

Warmup Instructions: 50000000
Simulation Instructions: 200000000
Number of CPUs: 1
LLC sets: 2048
LLC ways: 16
Off-chip DRAM Size: 4096 MB Channels: 1 Width: 64-bit Data Rate: 6400 MT/s
argv[0]: ./ChampSim/Berti/bin/tagescl-no-vberti-no-no-no-no-no-lru-lru-lru-srrip-drrip-lru-lru-lru-1core-no
argv[1]: -warmup_instructions
argv[2]: 50000000
argv[3]: -simulation_instructions
argv[4]: 200000000
argv[5]: -traces
argv[6]: traces/spec2k17_ten/623.xalancbmk_s-592B.champsimtrace.xz
CPU 0 runs traces/spec2k17_ten/623.xalancbmk_s-592B.champsimtrace.xz
.xz
CPU 0 Tage branch predictor
BTB has LRU replacement policy
ITLB has LRU replacement policy
DTLB has LRU replacement policy
STLB has LRU replacement policy
L1I has LRU replacement policy
History Sets: 8
History Ways: 16
BERTI Size: 16
BERTI Stride Size: 16
L1D has LRU replacement policy
Initialize SRRIP state for L2C
Initialize DRRIP state for LLC
Heartbeat CPU 0 instructions: 10000003 cycles: 3680510 heartbeat IPC: 2.71702 cumulative IPC: 2.71702 (Simulation time: 0 hr 9 min 48 sec) 
Heartbeat CPU 0 instructions: 20000000 cycles: 7224903 heartbeat IPC: 2.82136 cumulative IPC: 2.7682 (Simulation time: 0 hr 16 min 8 sec) 
Heartbeat CPU 0 instructions: 30000000 cycles: 10789239 heartbeat IPC: 2.80557 cumulative IPC: 2.78055 (Simulation time: 0 hr 24 min 54 sec) 
Heartbeat CPU 0 instructions: 40000001 cycles: 14452478 heartbeat IPC: 2.72982 cumulative IPC: 2.76769 (Simulation time: 0 hr 30 min 57 sec) 
Heartbeat CPU 0 instructions: 50000000 cycles: 18128249 heartbeat IPC: 2.72052 cumulative IPC: 2.75813 (Simulation time: 0 hr 39 min 52 sec) 

Warmup complete CPU 0 instructions: 50000004 cycles: 18128250 (Simulation time: 0 hr 39 min 52 sec) 

Heartbeat CPU 0 instructions: 60000000 cycles: 43964193 heartbeat IPC: 0.387058 cumulative IPC: 0.387058 (Simulation time: 0 hr 50 min 17 sec) 
Heartbeat CPU 0 instructions: 70000001 cycles: 68369537 heartbeat IPC: 0.409746 cumulative IPC: 0.398079 (Simulation time: 1 hr 0 min 37 sec) 
Heartbeat CPU 0 instructions: 80000001 cycles: 84073314 heartbeat IPC: 0.63679 cumulative IPC: 0.454924 (Simulation time: 1 hr 7 min 58 sec) 
Heartbeat CPU 0 instructions: 90000001 cycles: 97238783 heartbeat IPC: 0.759563 cumulative IPC: 0.505622 (Simulation time: 1 hr 16 min 13 sec) 
Heartbeat CPU 0 instructions: 100000001 cycles: 112522032 heartbeat IPC: 0.654311 cumulative IPC: 0.529696 (Simulation time: 1 hr 24 min 11 sec) 
Heartbeat CPU 0 instructions: 110000000 cycles: 135379766 heartbeat IPC: 0.437489 cumulative IPC: 0.51172 (Simulation time: 1 hr 35 min 18 sec) 
Heartbeat CPU 0 instructions: 120000002 cycles: 166509784 heartbeat IPC: 0.321233 cumulative IPC: 0.471757 (Simulation time: 1 hr 46 min 29 sec) 
Heartbeat CPU 0 instructions: 130000003 cycles: 194229731 heartbeat IPC: 0.360751 cumulative IPC: 0.454284 (Simulation time: 1 hr 55 min 58 sec) 
Heartbeat CPU 0 instructions: 140000000 cycles: 219955460 heartbeat IPC: 0.388716 cumulative IPC: 0.445926 (Simulation time: 2 hr 4 min 40 sec) 
Heartbeat CPU 0 instructions: 150000001 cycles: 239768928 heartbeat IPC: 0.504707 cumulative IPC: 0.451181 (Simulation time: 2 hr 10 min 51 sec) 
Heartbeat CPU 0 instructions: 160000001 cycles: 253201244 heartbeat IPC: 0.744473 cumulative IPC: 0.46794 (Simulation time: 2 hr 16 min 21 sec) 
Heartbeat CPU 0 instructions: 170000003 cycles: 269448520 heartbeat IPC: 0.615488 cumulative IPC: 0.477478 (Simulation time: 2 hr 22 min 37 sec) 
Heartbeat CPU 0 instructions: 180000002 cycles: 297067976 heartbeat IPC: 0.362064 cumulative IPC: 0.466051 (Simulation time: 2 hr 30 min 9 sec) 
Heartbeat CPU 0 instructions: 190000000 cycles: 327130578 heartbeat IPC: 0.332639 cumulative IPC: 0.453071 (Simulation time: 2 hr 36 min 1 sec) 
Heartbeat CPU 0 instructions: 200000001 cycles: 346955845 heartbeat IPC: 0.504407 cumulative IPC: 0.456166 (Simulation time: 2 hr 40 min 15 sec) 
Heartbeat CPU 0 instructions: 210000001 cycles: 375630397 heartbeat IPC: 0.348741 cumulative IPC: 0.44755 (Simulation time: 2 hr 44 min 10 sec) 
Heartbeat CPU 0 instructions: 220000000 cycles: 405946673 heartbeat IPC: 0.329856 cumulative IPC: 0.438349 (Simulation time: 2 hr 47 min 15 sec) 
Heartbeat CPU 0 instructions: 230000001 cycles: 433211019 heartbeat IPC: 0.366779 cumulative IPC: 0.433648 (Simulation time: 2 hr 50 min 12 sec) 
Heartbeat CPU 0 instructions: 240000000 cycles: 458581515 heartbeat IPC: 0.394159 cumulative IPC: 0.431374 (Simulation time: 2 hr 52 min 19 sec) 
Heartbeat CPU 0 instructions: 250000000 cycles: 482542800 heartbeat IPC: 0.41734 cumulative IPC: 0.43065 (Simulation time: 2 hr 53 min 50 sec) 
Finished CPU 0 instructions: 200000000 cycles: 464414551 cumulative IPC: 0.43065 (Simulation time: 2 hr 53 min 50 sec) 

ChampSim completed all CPUs

Region of Interest Statistics

CPU 0 cumulative IPC: 0.43065 instructions: 200000000 cycles: 464414551
ITLB TOTAL     ACCESS:   39570246  HIT:   39470487  MISS:      99759  HIT %:    99.7479  MISS %:   0.252106   MPKI: 0.498795
ITLB LOAD TRANSLATION ACCESS:   39570246  HIT:   39470487  MISS:      99759  HIT %:    99.7479  MISS %:   0.252106   MPKI: 0.498795
ITLB PREFETCH  REQUESTED:          0  ISSUED:          0  USEFUL:          0  USELESS:          0
ITLB USEFUL LOAD PREFETCHES:          0 PREFETCH ISSUED TO LOWER LEVEL:          0  ACCURACY: -nan
ITLB TIMELY PREFETCHES:          0 LATE PREFETCHES: 0 DROPPED PREFETCHES: 0
ITLB PREFETCHES SAME FILL-ORIGIN LEVEL: 0 DIFFERENT FILL-ORIGIN LEVEL: 0
ITLB AVERAGE MISS LATENCY: 10.3535 cycles
ITLB RQ	ACCESS:   44306662	FORWARD:          0	MERGED:    4715020	TO_CACHE:   39591642

DTLB TOTAL     ACCESS:   40998983  HIT:   36054919  MISS:    4944064  HIT %:     87.941  MISS %:     12.059   MPKI: 24.7203
DTLB LOAD TRANSLATION ACCESS:   40998983  HIT:   36054919  MISS:    4944064  HIT %:     87.941  MISS %:     12.059   MPKI: 24.7203
DTLB PREFETCH  REQUESTED:          0  ISSUED:          0  USEFUL:          0  USELESS:          0
DTLB USEFUL LOAD PREFETCHES:          0 PREFETCH ISSUED TO LOWER LEVEL:          0  ACCURACY: -nan
DTLB TIMELY PREFETCHES:          0 LATE PREFETCHES: 0 DROPPED PREFETCHES: 0
DTLB PREFETCHES SAME FILL-ORIGIN LEVEL: 0 DIFFERENT FILL-ORIGIN LEVEL: 0
DTLB AVERAGE MISS LATENCY: 10.3131 cycles
DTLB RQ	ACCESS:   47789957	FORWARD:          0	MERGED:    6695229	TO_CACHE:   41094728

STLB TOTAL     ACCESS:    8567862  HIT:    8284129  MISS:     283733  HIT %:    96.6884  MISS %:     3.3116   MPKI: 1.41867
STLB LOAD TRANSLATION ACCESS:    5043823  HIT:    4763510  MISS:     280313  HIT %:    94.4424  MISS %:    5.55755   MPKI: 1.40156
STLB TRANSLATION FROM L1D PREFETCHER ACCESS:    3524039  HIT:    3520619  MISS:       3420  HIT %:     99.903  MISS %:  0.0970477   MPKI: 0.0171
STLB PREFETCH  REQUESTED:          0  ISSUED:          0  USEFUL:       3298  USELESS:        119
STLB USEFUL LOAD PREFETCHES:       3298 PREFETCH ISSUED TO LOWER LEVEL:          0  ACCURACY: inf
STLB TIMELY PREFETCHES:       3298 LATE PREFETCHES: 44 DROPPED PREFETCHES: 35204
STLB PREFETCHES SAME FILL-ORIGIN LEVEL: 0 DIFFERENT FILL-ORIGIN LEVEL: 0
STLB AVERAGE MISS LATENCY: 23.6073 cycles
STLB RQ	ACCESS:   21427987	FORWARD:          0	MERGED:   12824043	TO_CACHE:    8603944

STLB Hit, L1D data hit: 0
STLB Hit, L2C data hit: 0
STLB Hit, LLC data hit: 0
STLB Hit, LLC data miss: 0
STLB STLB hints to L2: 0
L1D TOTAL     ACCESS:   61019032  HIT:   52121908  MISS:    8897124  HIT %:    85.4191  MISS %:    14.5809   MPKI: 44.4856
L1D LOAD      ACCESS:   33238048  HIT:   25222689  MISS:    8015359  HIT %:     75.885  MISS %:     24.115   MPKI: 40.0768
L1D RFO       ACCESS:   13229112  HIT:   12835233  MISS:     393879  HIT %:    97.0226  MISS %:    2.97737   MPKI: 1.9694
L1D PREFETCH  ACCESS:   14551872  HIT:   14063986  MISS:     487886  HIT %:    96.6473  MISS %:    3.35274   MPKI: 2.43943
L1D PREFETCH  REQUESTED:   41334510  ISSUED:   41305697  USEFUL:     447008  USELESS:      40869
L1D USEFUL LOAD PREFETCHES:     447008 PREFETCH ISSUED TO LOWER LEVEL:    2185339  ACCURACY: 20.4549
L1D TIMELY PREFETCHES:     447008 LATE PREFETCHES: 6806 DROPPED PREFETCHES: 38638
L1D PREFETCHES SAME FILL-ORIGIN LEVEL: 495168 DIFFERENT FILL-ORIGIN LEVEL: 1690171
L1D AVERAGE MISS LATENCY: 22.2921 cycles
L1D RQ	ACCESS:   61968776	FORWARD:          0	MERGED:   27121836	TO_CACHE:   33540265
L1D WQ	ACCESS:   14439353	FORWARD:    1306716	MERGED:     189661	TO_CACHE:   14249692
L1D PQ	ACCESS:   24921533	FORWARD:          0	MERGED:    8537328	TO_CACHE:   16384164

L1D UNIQUE REGIONS ACCESSED: 0
L1D REGIONS CONFLICTS: 0
L1D Cross Page Prefetch Requests: 4331021
L1D Same Page Prefetch Requests: 24186795
L1D ROI Sum of L1D PQ occupancy: 233726446
L1D PREFETCHES PUSHED FROM L2C: 0
L1I TOTAL     ACCESS:   44192085  HIT:   43711198  MISS:     480887  HIT %:    98.9118  MISS %:    1.08817   MPKI: 2.40443
L1I LOAD      ACCESS:   44192085  HIT:   43711198  MISS:     480887  HIT %:    98.9118  MISS %:    1.08817   MPKI: 2.40443
L1I PREFETCH  REQUESTED:          0  ISSUED:          0  USEFUL:          0  USELESS:          0
L1I USEFUL LOAD PREFETCHES:          0 PREFETCH ISSUED TO LOWER LEVEL:          0  ACCURACY: -nan
L1I TIMELY PREFETCHES:          0 LATE PREFETCHES: 0 DROPPED PREFETCHES: 0
L1I PREFETCHES SAME FILL-ORIGIN LEVEL: 0 DIFFERENT FILL-ORIGIN LEVEL: 0
L1I AVERAGE MISS LATENCY: 15.5064 cycles
L1I RQ	ACCESS:   57309546	FORWARD:          0	MERGED:   13002884	TO_CACHE:   44306662

BTB TOTAL     ACCESS:   36570571  HIT:   34805262  MISS:    1765309  HIT %:    95.1729  MISS %:    4.82713   MPKI: 8.82654
BTB BRANCH_DIRECT_JUMP	ACCESS:    1537302  HIT:    1529898  MISS:       7404
BTB BRANCH_INDIRECT	ACCESS:     531807  HIT:     447578  MISS:      84229
BTB BRANCH_CONDITIONAL	ACCESS:   28493703  HIT:   28492938  MISS:        765
BTB BRANCH_DIRECT_CALL	ACCESS:    1917769  HIT:    1914266  MISS:       3503
BTB BRANCH_INDIRECT_CALL	ACCESS:    1086112  HIT:     936302  MISS:     149810
BTB BRANCH_RETURN	ACCESS:    3003878  HIT:    1484280  MISS:    1519598
BTB BRANCH_OTHER ACCESS:          0  HIT:          0  MISS:          0

L2C TOTAL     ACCESS:   11937198  HIT:   11294016  MISS:     643182  HIT %:     94.612  MISS %:    5.38805   MPKI: 3.21591
L2C LOAD      ACCESS:    8489405  HIT:    8241593  MISS:     247812  HIT %:    97.0809  MISS %:    2.91907   MPKI: 1.23906
L2C DATA LOAD MPKI: 1.20867
L2C INSTRUCTION LOAD MPKI: 0.030385
L2C RFO       ACCESS:     393402  HIT:      55157  MISS:     338245  HIT %:    14.0205  MISS %:    85.9795   MPKI: 1.69122
L2C PREFETCH  ACCESS:    2174524  HIT:    2142565  MISS:      31959  HIT %:    98.5303  MISS %:     1.4697   MPKI: 0.159795
L2C DATA PREFETCH MPKI: 0.159795
L2C INSTRUCTION PREFETCH MPKI: 0
L2C WRITEBACK ACCESS:     558395  HIT:     551335  MISS:       7060  HIT %:    98.7357  MISS %:    1.26434   MPKI: 0.0353
L2C LOAD TRANSLATION ACCESS:     282739  HIT:     266326  MISS:      16413  HIT %:     94.195  MISS %:      5.805   MPKI: 0.082065
L2C TRANSLATION FROM L1D PREFETCHER ACCESS:      38733  HIT:      37040  MISS:       1693  HIT %:    95.6291  MISS %:    4.37095   MPKI: 0.008465
L2C PREFETCH  REQUESTED:          0  ISSUED:          0  USEFUL:       6476  USELESS:      27323
L2C USEFUL LOAD PREFETCHES:       6476 PREFETCH ISSUED TO LOWER LEVEL:      32254  ACCURACY: 20.0781
L2C TIMELY PREFETCHES:       6476 LATE PREFETCHES: 295 DROPPED PREFETCHES: 0
L2C PREFETCHES SAME FILL-ORIGIN LEVEL: 25977 DIFFERENT FILL-ORIGIN LEVEL: 0
L2C AVERAGE MISS LATENCY: 105.292 cycles
L2C RQ	ACCESS:    9204315	FORWARD:          0	MERGED:          0	TO_CACHE:    9204279
L2C WQ	ACCESS:     558395	FORWARD:        262	MERGED:          0	TO_CACHE:     558395
L2C PQ	ACCESS:    2185339	FORWARD:          0	MERGED:       1257	TO_CACHE:    2183856

L2C Instructions Evicting Data 5210
L2C Translations Evicting Data 17186
L2C Data Evicting Data 589832
L2C Instructions Evicting Instructions 515
L2C Translations Evicting Instructions 246
L2C Data Evicting Instructions 5220
L2C Instructions Evicting Translations 352
L2C Translations Evicting Translations 674
L2C Data Evicting Translations 16887
L2C Dense regions hint from L2: 0
PSCL5 TOTAL     ACCESS:     318937  HIT:     318937  MISS:          0  HIT %:        100  MISS %:          0   MPKI: 0
PSCL5 LOAD TRANSLATION ACCESS:     280269  HIT:     280269  MISS:          0  HIT %:        100  MISS %:          0   MPKI: 0
PSCL5 TRANSLATION FROM L1D PREFETCHER ACCESS:      38668  HIT:      38668  MISS:          0  HIT %:        100  MISS %:          0   MPKI: 0
PSCL5 PREFETCH  REQUESTED:          0  ISSUED:          0  USEFUL:          0  USELESS:          0
PSCL5 USEFUL LOAD PREFETCHES:          0 PREFETCH ISSUED TO LOWER LEVEL:          0  ACCURACY: -nan
PSCL5 TIMELY PREFETCHES:          0 LATE PREFETCHES: 0 DROPPED PREFETCHES: 0
PSCL5 PREFETCHES SAME FILL-ORIGIN LEVEL: 0 DIFFERENT FILL-ORIGIN LEVEL: 0

PSCL4 TOTAL     ACCESS:     318937  HIT:     318937  MISS:          0  HIT %:        100  MISS %:          0   MPKI: 0
PSCL4 LOAD TRANSLATION ACCESS:     280269  HIT:     280269  MISS:          0  HIT %:        100  MISS %:          0   MPKI: 0
PSCL4 TRANSLATION FROM L1D PREFETCHER ACCESS:      38668  HIT:      38668  MISS:          0  HIT %:        100  MISS %:          0   MPKI: 0
PSCL4 PREFETCH  REQUESTED:          0  ISSUED:          0  USEFUL:          0  USELESS:          0
PSCL4 USEFUL LOAD PREFETCHES:          0 PREFETCH ISSUED TO LOWER LEVEL:          0  ACCURACY: -nan
PSCL4 TIMELY PREFETCHES:          0 LATE PREFETCHES: 0 DROPPED PREFETCHES: 0
PSCL4 PREFETCHES SAME FILL-ORIGIN LEVEL: 0 DIFFERENT FILL-ORIGIN LEVEL: 0

PSCL3 TOTAL     ACCESS:     318937  HIT:     318937  MISS:          0  HIT %:        100  MISS %:          0   MPKI: 0
PSCL3 LOAD TRANSLATION ACCESS:     280269  HIT:     280269  MISS:          0  HIT %:        100  MISS %:          0   MPKI: 0
PSCL3 TRANSLATION FROM L1D PREFETCHER ACCESS:      38668  HIT:      38668  MISS:          0  HIT %:        100  MISS %:          0   MPKI: 0
PSCL3 PREFETCH  REQUESTED:          0  ISSUED:          0  USEFUL:          0  USELESS:          0
PSCL3 USEFUL LOAD PREFETCHES:          0 PREFETCH ISSUED TO LOWER LEVEL:          0  ACCURACY: -nan
PSCL3 TIMELY PREFETCHES:          0 LATE PREFETCHES: 0 DROPPED PREFETCHES: 0
PSCL3 PREFETCHES SAME FILL-ORIGIN LEVEL: 0 DIFFERENT FILL-ORIGIN LEVEL: 0

PSCL2 TOTAL     ACCESS:     318881  HIT:     316401  MISS:       2480  HIT %:    99.2223  MISS %:    0.77772   MPKI: 0.0124
PSCL2 LOAD TRANSLATION ACCESS:     280278  HIT:     277798  MISS:       2480  HIT %:    99.1152  MISS %:   0.884836   MPKI: 0.0124
PSCL2 TRANSLATION FROM L1D PREFETCHER ACCESS:      38603  HIT:      38603  MISS:          0  HIT %:        100  MISS %:          0   MPKI: 0
PSCL2 PREFETCH  REQUESTED:          0  ISSUED:          0  USEFUL:          0  USELESS:          0
PSCL2 USEFUL LOAD PREFETCHES:          0 PREFETCH ISSUED TO LOWER LEVEL:          0  ACCURACY: -nan
PSCL2 TIMELY PREFETCHES:          0 LATE PREFETCHES: 0 DROPPED PREFETCHES: 0
PSCL2 PREFETCHES SAME FILL-ORIGIN LEVEL: 0 DIFFERENT FILL-ORIGIN LEVEL: 0

LLC TOTAL     ACCESS:    1020985  HIT:     639288  MISS:     381697  HIT %:    62.6148  MISS %:    37.3852   MPKI: 1.90848
LLC LOAD      ACCESS:     247711  HIT:     203233  MISS:      44478  HIT %:    82.0444  MISS %:    17.9556   MPKI: 0.22239
LLC RFO       ACCESS:     338050  HIT:      19813  MISS:     318237  HIT %:    5.86097  MISS %:     94.139   MPKI: 1.59119
LLC PREFETCH  ACCESS:      32254  HIT:      21627  MISS:      10627  HIT %:    67.0521  MISS %:    32.9479   MPKI: 0.053135
LLC WRITEBACK ACCESS:     384864  HIT:     379012  MISS:       5852  HIT %:    98.4795  MISS %:    1.52054   MPKI: 0.02926
LLC LOAD TRANSLATION ACCESS:      16413  HIT:      13982  MISS:       2431  HIT %:    85.1886  MISS %:    14.8114   MPKI: 0.012155
LLC TRANSLATION FROM L1D PREFETCHER ACCESS:       1693  HIT:       1621  MISS:         72  HIT %:    95.7472  MISS %:    4.25281   MPKI: 0.00036
LLC PREFETCH  REQUESTED:          0  ISSUED:          0  USEFUL:       1524  USELESS:       8991
LLC USEFUL LOAD PREFETCHES:       1524 PREFETCH ISSUED TO LOWER LEVEL:      10627  ACCURACY: 14.3408
LLC TIMELY PREFETCHES:       1524 LATE PREFETCHES: 0 DROPPED PREFETCHES: 0
LLC PREFETCHES SAME FILL-ORIGIN LEVEL: 0 DIFFERENT FILL-ORIGIN LEVEL: 0
LLC AVERAGE MISS LATENCY: 127.447 cycles
LLC RQ	ACCESS:     603868	FORWARD:          0	MERGED:          0	TO_CACHE:     603867
LLC WQ	ACCESS:     384864	FORWARD:          1	MERGED:          0	TO_CACHE:     384864
LLC PQ	ACCESS:      32254	FORWARD:          0	MERGED:          0	TO_CACHE:      32254

LLC Dense regions hint to LLC: 0

RAW hits: 635552
Loads Generated: 62604331
Loads sent to L1D: 61968776
Stores Generated: 14439353
Stores sent to L1D: 14439353
Major fault: 0 Minor fault: 5095
Allocated PAGES: 5095

DRAM Statistics
 CHANNEL 0
 RQ ROW_BUFFER_HIT:     206306  ROW_BUFFER_MISS:     169536
 DBUS_CONGESTED:        129
 WQ ROW_BUFFER_HIT:      50785  ROW_BUFFER_MISS:     299418  FULL:          0

 AVG_CONGESTED_CYCLE: 6
 All warmup complete: 2
Channel 0 Bank busy for read cycles: 0
Channel 0 Bank busy for write cycles: 0
Channel 0
Rank 0
0banks busy for read cycles: 432945414
0banks busy for write cycles: 62859
1banks busy for read cycles: 9831488
1banks busy for write cycles: 7769930
2banks busy for read cycles: 1702665
2banks busy for write cycles: 2089234
3banks busy for read cycles: 757719
3banks busy for write cycles: 613763
4banks busy for read cycles: 1012214
4banks busy for write cycles: 415061
5banks busy for read cycles: 488714
5banks busy for write cycles: 396978
6banks busy for read cycles: 479673
6banks busy for write cycles: 454350
7banks busy for read cycles: 504577
7banks busy for write cycles: 772588
8banks busy for read cycles: 929182
8banks busy for write cycles: 3188143

CPU 0 Branch Prediction Accuracy: 99.8651% MPKI: 0.335735 Average ROB Occupancy at Mispredict: 92.4289
Branch types
NOT_BRANCH: 142153356 71.0767%
BRANCH_DIRECT_JUMP: 1537302 0.768651%
BRANCH_INDIRECT: 531807 0.265904%
BRANCH_CONDITIONAL: 49769441 24.8847%
BRANCH_DIRECT_CALL: 1917769 0.958885%
BRANCH_INDIRECT_CALL: 1086112 0.543056%
BRANCH_RETURN: 3003878 1.50194%
BRANCH_OTHER: 0 0%

DRAM PAGES: 1048576
Allocated PAGES: 5095
