 (TOTAL 67349)
 
*** ChampSim Multicore Out-of-Order Simulator ***

Warmup Instructions: 50000000
Simulation Instructions: 200000000
Number of CPUs: 1
LLC sets: 2048
LLC ways: 16
Off-chip DRAM Size: 4096 MB Channels: 1 Width: 64-bit Data Rate: 6400 MT/s
argv[0]: ./ChampSim/Berti/bin/tagescl8kb-no-vberti-no-no-no-no-no-lru-lru-lru-srrip-drrip-lru-lru-lru-1core-no
argv[1]: -warmup_instructions
argv[2]: 50000000
argv[3]: -simulation_instructions
argv[4]: 200000000
argv[5]: -traces
argv[6]: traces/spec2k17_ten/602.gcc_s-1850B.champsimtrace.xz
CPU 0 runs traces/spec2k17_ten/602.gcc_s-1850B.champsimtrace.xz
.xz
CPU 0 Tage branch predictor
BTB has LRU replacement policy
ITLB has LRU replacement policy
DTLB has LRU replacement policy
STLB has LRU replacement policy
L1I has LRU replacement policy
History Sets: 8
History Ways: 16
BERTI Size: 16
BERTI Stride Size: 16
L1D has LRU replacement policy
Initialize SRRIP state for L2C
Initialize DRRIP state for LLC
Heartbeat CPU 0 instructions: 10000002 cycles: 3263051 heartbeat IPC: 3.06462 cumulative IPC: 3.06462 (Simulation time: 0 hr 6 min 7 sec) 
Heartbeat CPU 0 instructions: 20000000 cycles: 6526415 heartbeat IPC: 3.06432 cumulative IPC: 3.06447 (Simulation time: 0 hr 17 min 10 sec) 
Heartbeat CPU 0 instructions: 30000000 cycles: 9788590 heartbeat IPC: 3.06544 cumulative IPC: 3.06479 (Simulation time: 0 hr 23 min 17 sec) 
Heartbeat CPU 0 instructions: 40000000 cycles: 13051010 heartbeat IPC: 3.06521 cumulative IPC: 3.0649 (Simulation time: 0 hr 29 min 58 sec) 
Heartbeat CPU 0 instructions: 50000000 cycles: 16314482 heartbeat IPC: 3.06422 cumulative IPC: 3.06476 (Simulation time: 0 hr 36 min 3 sec) 

Warmup complete CPU 0 instructions: 50000004 cycles: 16314483 (Simulation time: 0 hr 36 min 3 sec) 

Heartbeat CPU 0 instructions: 60000003 cycles: 39337733 heartbeat IPC: 0.434344 cumulative IPC: 0.434343 (Simulation time: 0 hr 48 min 47 sec) 
Heartbeat CPU 0 instructions: 70000002 cycles: 62347104 heartbeat IPC: 0.434605 cumulative IPC: 0.434474 (Simulation time: 1 hr 2 min 54 sec) 
Heartbeat CPU 0 instructions: 80000003 cycles: 85358142 heartbeat IPC: 0.434574 cumulative IPC: 0.434508 (Simulation time: 1 hr 15 min 48 sec) 
Heartbeat CPU 0 instructions: 90000001 cycles: 108394685 heartbeat IPC: 0.434093 cumulative IPC: 0.434404 (Simulation time: 1 hr 27 min 24 sec) 
Heartbeat CPU 0 instructions: 100000000 cycles: 131406844 heartbeat IPC: 0.434553 cumulative IPC: 0.434434 (Simulation time: 1 hr 38 min 16 sec) 
Heartbeat CPU 0 instructions: 110000000 cycles: 154492286 heartbeat IPC: 0.433173 cumulative IPC: 0.434223 (Simulation time: 1 hr 48 min 4 sec) 
Heartbeat CPU 0 instructions: 120000003 cycles: 177602666 heartbeat IPC: 0.432706 cumulative IPC: 0.434006 (Simulation time: 1 hr 58 min 41 sec) 
Heartbeat CPU 0 instructions: 130000003 cycles: 200659765 heartbeat IPC: 0.433706 cumulative IPC: 0.433968 (Simulation time: 2 hr 6 min 50 sec) 
Heartbeat CPU 0 instructions: 140000000 cycles: 223667075 heartbeat IPC: 0.434644 cumulative IPC: 0.434043 (Simulation time: 2 hr 16 min 34 sec) 
Heartbeat CPU 0 instructions: 150000000 cycles: 246676903 heartbeat IPC: 0.434597 cumulative IPC: 0.434099 (Simulation time: 2 hr 29 min 43 sec) 
Heartbeat CPU 0 instructions: 160000000 cycles: 269750715 heartbeat IPC: 0.433392 cumulative IPC: 0.434034 (Simulation time: 2 hr 40 min 21 sec) 
Heartbeat CPU 0 instructions: 170000003 cycles: 292840378 heartbeat IPC: 0.433094 cumulative IPC: 0.433956 (Simulation time: 2 hr 51 min 10 sec) 
Heartbeat CPU 0 instructions: 180000000 cycles: 315865740 heartbeat IPC: 0.434304 cumulative IPC: 0.433982 (Simulation time: 3 hr 2 min 6 sec) 
Heartbeat CPU 0 instructions: 190000003 cycles: 338974411 heartbeat IPC: 0.432738 cumulative IPC: 0.433893 (Simulation time: 3 hr 10 min 33 sec) 
Heartbeat CPU 0 instructions: 200000000 cycles: 361971379 heartbeat IPC: 0.43484 cumulative IPC: 0.433956 (Simulation time: 3 hr 17 min 52 sec) 
Heartbeat CPU 0 instructions: 210000002 cycles: 385025365 heartbeat IPC: 0.433765 cumulative IPC: 0.433944 (Simulation time: 3 hr 25 min 39 sec) 
Heartbeat CPU 0 instructions: 220000000 cycles: 408178725 heartbeat IPC: 0.431903 cumulative IPC: 0.433824 (Simulation time: 3 hr 31 min 19 sec) 
Heartbeat CPU 0 instructions: 230000003 cycles: 431257518 heartbeat IPC: 0.433298 cumulative IPC: 0.433794 (Simulation time: 3 hr 35 min 35 sec) 
Heartbeat CPU 0 instructions: 240000000 cycles: 454301007 heartbeat IPC: 0.433962 cumulative IPC: 0.433803 (Simulation time: 3 hr 39 min 9 sec) 
Heartbeat CPU 0 instructions: 250000000 cycles: 477388483 heartbeat IPC: 0.433135 cumulative IPC: 0.43377 (Simulation time: 3 hr 42 min 15 sec) 
Finished CPU 0 instructions: 200000000 cycles: 461074001 cumulative IPC: 0.43377 (Simulation time: 3 hr 42 min 15 sec) 

ChampSim completed all CPUs

Region of Interest Statistics

CPU 0 cumulative IPC: 0.43377 instructions: 200000000 cycles: 461074001
ITLB TOTAL     ACCESS:   44357961  HIT:   44357961  MISS:          0  HIT %:        100  MISS %:          0   MPKI: 0
ITLB LOAD TRANSLATION ACCESS:   44357961  HIT:   44357961  MISS:          0  HIT %:        100  MISS %:          0   MPKI: 0
ITLB PREFETCH  REQUESTED:          0  ISSUED:          0  USEFUL:          0  USELESS:          0
ITLB USEFUL LOAD PREFETCHES:          0 PREFETCH ISSUED TO LOWER LEVEL:          0  ACCURACY: -nan
ITLB TIMELY PREFETCHES:          0 LATE PREFETCHES: 0 DROPPED PREFETCHES: 0
ITLB PREFETCHES SAME FILL-ORIGIN LEVEL: 0 DIFFERENT FILL-ORIGIN LEVEL: 0
ITLB AVERAGE MISS LATENCY: -nan cycles
ITLB RQ	ACCESS:   50283260	FORWARD:          0	MERGED:    5925300	TO_CACHE:   44357960

DTLB TOTAL     ACCESS:   54649305  HIT:   54583164  MISS:      66141  HIT %:     99.879  MISS %:   0.121028   MPKI: 0.330705
DTLB LOAD TRANSLATION ACCESS:   54649305  HIT:   54583164  MISS:      66141  HIT %:     99.879  MISS %:   0.121028   MPKI: 0.330705
DTLB PREFETCH  REQUESTED:          0  ISSUED:          0  USEFUL:          0  USELESS:          0
DTLB USEFUL LOAD PREFETCHES:          0 PREFETCH ISSUED TO LOWER LEVEL:          0  ACCURACY: -nan
DTLB TIMELY PREFETCHES:          0 LATE PREFETCHES: 0 DROPPED PREFETCHES: 0
DTLB PREFETCHES SAME FILL-ORIGIN LEVEL: 0 DIFFERENT FILL-ORIGIN LEVEL: 0
DTLB AVERAGE MISS LATENCY: 120.149 cycles
DTLB RQ	ACCESS:   56020663	FORWARD:          0	MERGED:    1369399	TO_CACHE:   54651264

STLB TOTAL     ACCESS:    9638513  HIT:    9577594  MISS:      60919  HIT %:     99.368  MISS %:   0.632037   MPKI: 0.304595
STLB LOAD TRANSLATION ACCESS:      66141  HIT:       5320  MISS:      60821  HIT %:    8.04342  MISS %:    91.9566   MPKI: 0.304105
STLB TRANSLATION FROM L1D PREFETCHER ACCESS:    9572372  HIT:    9572274  MISS:         98  HIT %:     99.999  MISS %: 0.00102378   MPKI: 0.00049
STLB PREFETCH  REQUESTED:          0  ISSUED:          0  USEFUL:         89  USELESS:          9
STLB USEFUL LOAD PREFETCHES:         89 PREFETCH ISSUED TO LOWER LEVEL:          0  ACCURACY: inf
STLB TIMELY PREFETCHES:         89 LATE PREFETCHES: 8127 DROPPED PREFETCHES: 1314665
STLB PREFETCHES SAME FILL-ORIGIN LEVEL: 0 DIFFERENT FILL-ORIGIN LEVEL: 0
STLB AVERAGE MISS LATENCY: 113.233 cycles
STLB RQ	ACCESS:   52776203	FORWARD:          0	MERGED:   41526981	TO_CACHE:   11249222

STLB Hit, L1D data hit: 0
STLB Hit, L2C data hit: 0
STLB Hit, LLC data hit: 0
STLB Hit, LLC data miss: 0
STLB STLB hints to L2: 0
L1D TOTAL     ACCESS:   91553039  HIT:   86967756  MISS:    4585283  HIT %:    94.9917  MISS %:    5.00834   MPKI: 22.9264
L1D LOAD      ACCESS:   38679717  HIT:   37506145  MISS:    1173572  HIT %:    96.9659  MISS %:    3.03408   MPKI: 5.86786
L1D RFO       ACCESS:   17263553  HIT:   17261948  MISS:       1605  HIT %:    99.9907  MISS %: 0.00929704   MPKI: 0.008025
L1D PREFETCH  ACCESS:   35609769  HIT:   32199663  MISS:    3410106  HIT %:    90.4237  MISS %:    9.57632   MPKI: 17.0505
L1D PREFETCH  REQUESTED:  116819820  ISSUED:  116601078  USEFUL:    3315193  USELESS:      94931
L1D USEFUL LOAD PREFETCHES:    3315193 PREFETCH ISSUED TO LOWER LEVEL:   15721095  ACCURACY: 21.0875
L1D TIMELY PREFETCHES:    3315193 LATE PREFETCHES: 11112 DROPPED PREFETCHES: 3924724
L1D PREFETCHES SAME FILL-ORIGIN LEVEL: 3421219 DIFFERENT FILL-ORIGIN LEVEL: 12299876
L1D AVERAGE MISS LATENCY: 45.1767 cycles
L1D RQ	ACCESS:   55595132	FORWARD:          0	MERGED:   16837978	TO_CACHE:   38757109
L1D WQ	ACCESS:   19411013	FORWARD:         45	MERGED:    2147459	TO_CACHE:   17263554
L1D PQ	ACCESS:   63891016	FORWARD:          0	MERGED:   11180954	TO_CACHE:   52710062

L1D UNIQUE REGIONS ACCESSED: 0
L1D REGIONS CONFLICTS: 0
L1D Cross Page Prefetch Requests: 10227228
L1D Same Page Prefetch Requests: 69120927
L1D ROI Sum of L1D PQ occupancy: 921268628
L1D PREFETCHES PUSHED FROM L2C: 0
L1I TOTAL     ACCESS:   50283259  HIT:   50283259  MISS:          0  HIT %:        100  MISS %:          0   MPKI: 0
L1I LOAD      ACCESS:   50283259  HIT:   50283259  MISS:          0  HIT %:        100  MISS %:          0   MPKI: 0
L1I PREFETCH  REQUESTED:          0  ISSUED:          0  USEFUL:          0  USELESS:          0
L1I USEFUL LOAD PREFETCHES:          0 PREFETCH ISSUED TO LOWER LEVEL:          0  ACCURACY: -nan
L1I TIMELY PREFETCHES:          0 LATE PREFETCHES: 0 DROPPED PREFETCHES: 0
L1I PREFETCHES SAME FILL-ORIGIN LEVEL: 0 DIFFERENT FILL-ORIGIN LEVEL: 0
L1I AVERAGE MISS LATENCY: -nan cycles
L1I RQ	ACCESS:   78720291	FORWARD:          0	MERGED:   28437031	TO_CACHE:   50283260

BTB TOTAL     ACCESS:   32765953  HIT:   32765924  MISS:         29  HIT %:    99.9999  MISS %: 8.85065e-05   MPKI: 0.000145
BTB BRANCH_DIRECT_JUMP	ACCESS:    4318196  HIT:    4318187  MISS:          9
BTB BRANCH_INDIRECT	ACCESS:          0  HIT:          0  MISS:          0
BTB BRANCH_CONDITIONAL	ACCESS:   24127035  HIT:   24127021  MISS:         14
BTB BRANCH_DIRECT_CALL	ACCESS:    2160361  HIT:    2160358  MISS:          3
BTB BRANCH_INDIRECT_CALL	ACCESS:          0  HIT:          0  MISS:          0
BTB BRANCH_RETURN	ACCESS:    2160361  HIT:    2160358  MISS:          3
BTB BRANCH_OTHER ACCESS:          0  HIT:          0  MISS:          0

L2C TOTAL     ACCESS:   17602191  HIT:   13913625  MISS:    3688566  HIT %:    79.0448  MISS %:    20.9552   MPKI: 18.4428
L2C LOAD      ACCESS:    1162460  HIT:    1062230  MISS:     100230  HIT %:    91.3778  MISS %:    8.62223   MPKI: 0.50115
L2C DATA LOAD MPKI: 0.50115
L2C INSTRUCTION LOAD MPKI: 0
L2C RFO       ACCESS:       1605  HIT:          0  MISS:       1605  HIT %:          0  MISS %:        100   MPKI: 0.008025
L2C PREFETCH  ACCESS:   15031295  HIT:   11457649  MISS:    3573646  HIT %:    76.2253  MISS %:    23.7747   MPKI: 17.8682
L2C DATA PREFETCH MPKI: 17.8682
L2C INSTRUCTION PREFETCH MPKI: 0
L2C WRITEBACK ACCESS:      12082  HIT:      12036  MISS:         46  HIT %:    99.6193  MISS %:   0.380732   MPKI: 0.00023
L2C LOAD TRANSLATION ACCESS:      61097  HIT:      57146  MISS:       3951  HIT %:    93.5332  MISS %:    6.46677   MPKI: 0.019755
L2C TRANSLATION FROM L1D PREFETCHER ACCESS:    1333652  HIT:    1324564  MISS:       9088  HIT %:    99.3186  MISS %:   0.681437   MPKI: 0.04544
L2C PREFETCH  REQUESTED:          0  ISSUED:          0  USEFUL:     182304  USELESS:    3400406
L2C USEFUL LOAD PREFETCHES:     182304 PREFETCH ISSUED TO LOWER LEVEL:    3580458  ACCURACY: 5.09164
L2C TIMELY PREFETCHES:     182304 LATE PREFETCHES: 6811 DROPPED PREFETCHES: 0
L2C PREFETCHES SAME FILL-ORIGIN LEVEL: 2545713 DIFFERENT FILL-ORIGIN LEVEL: 0
L2C AVERAGE MISS LATENCY: 110.521 cycles
L2C RQ	ACCESS:    2558814	FORWARD:          0	MERGED:          0	TO_CACHE:    2558814
L2C WQ	ACCESS:      12082	FORWARD:          0	MERGED:          0	TO_CACHE:      12082
L2C PQ	ACCESS:   15721095	FORWARD:          0	MERGED:       1286	TO_CACHE:   15719809

L2C Instructions Evicting Data 0
L2C Translations Evicting Data 13010
L2C Data Evicting Data 3662482
L2C Instructions Evicting Instructions 0
L2C Translations Evicting Instructions 0
L2C Data Evicting Instructions 0
L2C Instructions Evicting Translations 0
L2C Translations Evicting Translations 29
L2C Data Evicting Translations 12999
L2C Dense regions hint from L2: 0
PSCL5 TOTAL     ACCESS:    1383708  HIT:    1383708  MISS:          0  HIT %:        100  MISS %:          0   MPKI: 0
PSCL5 LOAD TRANSLATION ACCESS:      60818  HIT:      60818  MISS:          0  HIT %:        100  MISS %:          0   MPKI: 0
PSCL5 TRANSLATION FROM L1D PREFETCHER ACCESS:    1322890  HIT:    1322890  MISS:          0  HIT %:        100  MISS %:          0   MPKI: 0
PSCL5 PREFETCH  REQUESTED:          0  ISSUED:          0  USEFUL:          0  USELESS:          0
PSCL5 USEFUL LOAD PREFETCHES:          0 PREFETCH ISSUED TO LOWER LEVEL:          0  ACCURACY: -nan
PSCL5 TIMELY PREFETCHES:          0 LATE PREFETCHES: 0 DROPPED PREFETCHES: 0
PSCL5 PREFETCHES SAME FILL-ORIGIN LEVEL: 0 DIFFERENT FILL-ORIGIN LEVEL: 0

PSCL4 TOTAL     ACCESS:    1383708  HIT:    1383708  MISS:          0  HIT %:        100  MISS %:          0   MPKI: 0
PSCL4 LOAD TRANSLATION ACCESS:      60818  HIT:      60818  MISS:          0  HIT %:        100  MISS %:          0   MPKI: 0
PSCL4 TRANSLATION FROM L1D PREFETCHER ACCESS:    1322890  HIT:    1322890  MISS:          0  HIT %:        100  MISS %:          0   MPKI: 0
PSCL4 PREFETCH  REQUESTED:          0  ISSUED:          0  USEFUL:          0  USELESS:          0
PSCL4 USEFUL LOAD PREFETCHES:          0 PREFETCH ISSUED TO LOWER LEVEL:          0  ACCURACY: -nan
PSCL4 TIMELY PREFETCHES:          0 LATE PREFETCHES: 0 DROPPED PREFETCHES: 0
PSCL4 PREFETCHES SAME FILL-ORIGIN LEVEL: 0 DIFFERENT FILL-ORIGIN LEVEL: 0

PSCL3 TOTAL     ACCESS:    1383708  HIT:    1383707  MISS:          1  HIT %:    99.9999  MISS %: 7.22696e-05   MPKI: 5e-06
PSCL3 LOAD TRANSLATION ACCESS:      60818  HIT:      60817  MISS:          1  HIT %:    99.9984  MISS %: 0.00164425   MPKI: 5e-06
PSCL3 TRANSLATION FROM L1D PREFETCHER ACCESS:    1322890  HIT:    1322890  MISS:          0  HIT %:        100  MISS %:          0   MPKI: 0
PSCL3 PREFETCH  REQUESTED:          0  ISSUED:          0  USEFUL:          0  USELESS:          0
PSCL3 USEFUL LOAD PREFETCHES:          0 PREFETCH ISSUED TO LOWER LEVEL:          0  ACCURACY: -nan
PSCL3 TIMELY PREFETCHES:          0 LATE PREFETCHES: 0 DROPPED PREFETCHES: 0
PSCL3 PREFETCHES SAME FILL-ORIGIN LEVEL: 0 DIFFERENT FILL-ORIGIN LEVEL: 0

PSCL2 TOTAL     ACCESS:    1359529  HIT:    1358844  MISS:        685  HIT %:    99.9496  MISS %:  0.0503851   MPKI: 0.003425
PSCL2 LOAD TRANSLATION ACCESS:      60819  HIT:      60134  MISS:        685  HIT %:    98.8737  MISS %:    1.12629   MPKI: 0.003425
PSCL2 TRANSLATION FROM L1D PREFETCHER ACCESS:    1298710  HIT:    1298710  MISS:          0  HIT %:        100  MISS %:          0   MPKI: 0
PSCL2 PREFETCH  REQUESTED:          0  ISSUED:          0  USEFUL:          0  USELESS:          0
PSCL2 USEFUL LOAD PREFETCHES:          0 PREFETCH ISSUED TO LOWER LEVEL:          0  ACCURACY: -nan
PSCL2 TIMELY PREFETCHES:          0 LATE PREFETCHES: 0 DROPPED PREFETCHES: 0
PSCL2 PREFETCHES SAME FILL-ORIGIN LEVEL: 0 DIFFERENT FILL-ORIGIN LEVEL: 0

LLC TOTAL     ACCESS:    3693451  HIT:      39385  MISS:    3654066  HIT %:    1.06635  MISS %:    98.9337   MPKI: 18.2703
LLC LOAD      ACCESS:      93419  HIT:       5131  MISS:      88288  HIT %:    5.49246  MISS %:    94.5075   MPKI: 0.44144
LLC RFO       ACCESS:       1605  HIT:          0  MISS:       1605  HIT %:          0  MISS %:        100   MPKI: 0.008025
LLC PREFETCH  ACCESS:    3580457  HIT:      27968  MISS:    3552489  HIT %:   0.781129  MISS %:    99.2189   MPKI: 17.7624
LLC WRITEBACK ACCESS:       4931  HIT:       4866  MISS:         65  HIT %:    98.6818  MISS %:    1.31819   MPKI: 0.000325
LLC LOAD TRANSLATION ACCESS:       3951  HIT:        559  MISS:       3392  HIT %:    14.1483  MISS %:    85.8517   MPKI: 0.01696
LLC TRANSLATION FROM L1D PREFETCHER ACCESS:       9088  HIT:        861  MISS:       8227  HIT %:    9.47403  MISS %:     90.526   MPKI: 0.041135
LLC PREFETCH  REQUESTED:          0  ISSUED:          0  USEFUL:        693  USELESS:    3559526
LLC USEFUL LOAD PREFETCHES:        693 PREFETCH ISSUED TO LOWER LEVEL:    3552490  ACCURACY: 0.0195074
LLC TIMELY PREFETCHES:        693 LATE PREFETCHES: 0 DROPPED PREFETCHES: 0
LLC PREFETCHES SAME FILL-ORIGIN LEVEL: 0 DIFFERENT FILL-ORIGIN LEVEL: 0
LLC AVERAGE MISS LATENCY: 81.386 cycles
LLC RQ	ACCESS:     108063	FORWARD:          0	MERGED:          0	TO_CACHE:     108063
LLC WQ	ACCESS:       4931	FORWARD:          0	MERGED:          0	TO_CACHE:       4931
LLC PQ	ACCESS:    3580458	FORWARD:          0	MERGED:          0	TO_CACHE:    3580458

LLC Dense regions hint to LLC: 0

RAW hits: 970
Loads Generated: 55596102
Loads sent to L1D: 55595132
Stores Generated: 19411013
Stores sent to L1D: 19411013
Major fault: 0 Minor fault: 76297
Allocated PAGES: 76297

DRAM Statistics
 CHANNEL 0
 RQ ROW_BUFFER_HIT:    3425970  ROW_BUFFER_MISS:     228031
 DBUS_CONGESTED:        144
 WQ ROW_BUFFER_HIT:       2143  ROW_BUFFER_MISS:       2783  FULL:          0

 AVG_CONGESTED_CYCLE: 4
 All warmup complete: 2
Channel 0 Bank busy for read cycles: 0
Channel 0 Bank busy for write cycles: 0
Channel 0
Rank 0
0banks busy for read cycles: 344249488
0banks busy for write cycles: 3696
1banks busy for read cycles: 67590507
1banks busy for write cycles: 630080
2banks busy for read cycles: 31012901
2banks busy for write cycles: 124322
3banks busy for read cycles: 8551149
3banks busy for write cycles: 32215
4banks busy for read cycles: 3835472
4banks busy for write cycles: 6685
5banks busy for read cycles: 1212406
5banks busy for write cycles: 1081
6banks busy for read cycles: 598950
6banks busy for write cycles: 0
7banks busy for read cycles: 562760
7banks busy for write cycles: 0
8banks busy for read cycles: 2662290
8banks busy for write cycles: 0

CPU 0 Branch Prediction Accuracy: 99.9703% MPKI: 0.06341 Average ROB Occupancy at Mispredict: 303.751
Branch types
NOT_BRANCH: 148719227 74.3596%
BRANCH_DIRECT_JUMP: 4318196 2.1591%
BRANCH_INDIRECT: 0 0%
BRANCH_CONDITIONAL: 42641844 21.3209%
BRANCH_DIRECT_CALL: 2160361 1.08018%
BRANCH_INDIRECT_CALL: 0 0%
BRANCH_RETURN: 2160361 1.08018%
BRANCH_OTHER: 0 0%

DRAM PAGES: 1048576
Allocated PAGES: 76297
