 (TOTAL 523355 bits 511 Kbits) 
*** ChampSim Multicore Out-of-Order Simulator ***

Warmup Instructions: 50000000
Simulation Instructions: 200000000
Number of CPUs: 1
LLC sets: 2048
LLC ways: 16
Off-chip DRAM Size: 4096 MB Channels: 1 Width: 64-bit Data Rate: 6400 MT/s
argv[0]: ./ChampSim/Berti/bin/tagescl-no-vberti-no-no-no-no-no-lru-lru-lru-srrip-drrip-lru-lru-lru-1core-no
argv[1]: -warmup_instructions
argv[2]: 50000000
argv[3]: -simulation_instructions
argv[4]: 200000000
argv[5]: -traces
argv[6]: traces/spec2k17_ten/619.lbm_s-3766B.champsimtrace.xz
CPU 0 runs traces/spec2k17_ten/619.lbm_s-3766B.champsimtrace.xz
.xz
CPU 0 Tage branch predictor
BTB has LRU replacement policy
ITLB has LRU replacement policy
DTLB has LRU replacement policy
STLB has LRU replacement policy
L1I has LRU replacement policy
History Sets: 8
History Ways: 16
BERTI Size: 16
BERTI Stride Size: 16
L1D has LRU replacement policy
Initialize SRRIP state for L2C
Initialize DRRIP state for LLC
Heartbeat CPU 0 instructions: 10000000 cycles: 2733191 heartbeat IPC: 3.65873 cumulative IPC: 3.65873 (Simulation time: 0 hr 5 min 12 sec) 
Heartbeat CPU 0 instructions: 20000002 cycles: 5469278 heartbeat IPC: 3.65486 cumulative IPC: 3.65679 (Simulation time: 0 hr 11 min 54 sec) 
Heartbeat CPU 0 instructions: 30000000 cycles: 8202585 heartbeat IPC: 3.65857 cumulative IPC: 3.65738 (Simulation time: 0 hr 20 min 49 sec) 
Heartbeat CPU 0 instructions: 40000001 cycles: 10938733 heartbeat IPC: 3.65477 cumulative IPC: 3.65673 (Simulation time: 0 hr 29 min 20 sec) 
Heartbeat CPU 0 instructions: 50000000 cycles: 13674887 heartbeat IPC: 3.65476 cumulative IPC: 3.65634 (Simulation time: 0 hr 37 min 37 sec) 

Warmup complete CPU 0 instructions: 50000004 cycles: 13674888 (Simulation time: 0 hr 37 min 37 sec) 

Heartbeat CPU 0 instructions: 60000000 cycles: 23960885 heartbeat IPC: 0.972195 cumulative IPC: 0.972195 (Simulation time: 0 hr 45 min 48 sec) 
Heartbeat CPU 0 instructions: 70000001 cycles: 34432958 heartbeat IPC: 0.954921 cumulative IPC: 0.963481 (Simulation time: 0 hr 54 min 45 sec) 
Heartbeat CPU 0 instructions: 80000002 cycles: 44771755 heartbeat IPC: 0.967231 cumulative IPC: 0.964727 (Simulation time: 1 hr 3 min 48 sec) 
Heartbeat CPU 0 instructions: 90000001 cycles: 55233615 heartbeat IPC: 0.955853 cumulative IPC: 0.962493 (Simulation time: 1 hr 12 min 6 sec) 
Heartbeat CPU 0 instructions: 100000000 cycles: 65544119 heartbeat IPC: 0.969885 cumulative IPC: 0.963963 (Simulation time: 1 hr 20 min 17 sec) 
Heartbeat CPU 0 instructions: 110000000 cycles: 76369795 heartbeat IPC: 0.92373 cumulative IPC: 0.957015 (Simulation time: 1 hr 29 min 32 sec) 
Heartbeat CPU 0 instructions: 120000003 cycles: 87360528 heartbeat IPC: 0.909858 cumulative IPC: 0.949982 (Simulation time: 1 hr 39 min 26 sec) 
Heartbeat CPU 0 instructions: 130000000 cycles: 100292971 heartbeat IPC: 0.773249 cumulative IPC: 0.923595 (Simulation time: 1 hr 49 min 16 sec) 
Heartbeat CPU 0 instructions: 140000002 cycles: 114550756 heartbeat IPC: 0.701371 cumulative IPC: 0.892186 (Simulation time: 2 hr 0 min 11 sec) 
Heartbeat CPU 0 instructions: 150000003 cycles: 131014522 heartbeat IPC: 0.607395 cumulative IPC: 0.852227 (Simulation time: 2 hr 12 min 24 sec) 
Heartbeat CPU 0 instructions: 160000002 cycles: 151257176 heartbeat IPC: 0.494006 cumulative IPC: 0.799522 (Simulation time: 2 hr 26 min 31 sec) 
Heartbeat CPU 0 instructions: 170000003 cycles: 175718320 heartbeat IPC: 0.408812 cumulative IPC: 0.740542 (Simulation time: 2 hr 41 min 40 sec) 
Heartbeat CPU 0 instructions: 180000003 cycles: 202087460 heartbeat IPC: 0.379231 cumulative IPC: 0.689975 (Simulation time: 2 hr 56 min 58 sec) 
Heartbeat CPU 0 instructions: 190000001 cycles: 229704736 heartbeat IPC: 0.362092 cumulative IPC: 0.648059 (Simulation time: 3 hr 14 min 47 sec) 
Heartbeat CPU 0 instructions: 200000003 cycles: 255029546 heartbeat IPC: 0.39487 cumulative IPC: 0.621492 (Simulation time: 3 hr 32 min 4 sec) 
Heartbeat CPU 0 instructions: 210000000 cycles: 278849926 heartbeat IPC: 0.419808 cumulative IPC: 0.603375 (Simulation time: 3 hr 46 min 57 sec) 
Heartbeat CPU 0 instructions: 220000000 cycles: 300489398 heartbeat IPC: 0.462118 cumulative IPC: 0.592718 (Simulation time: 4 hr 0 min 6 sec) 
Heartbeat CPU 0 instructions: 230000000 cycles: 321800113 heartbeat IPC: 0.469248 cumulative IPC: 0.584178 (Simulation time: 4 hr 10 min 18 sec) 
Heartbeat CPU 0 instructions: 240000002 cycles: 341933600 heartbeat IPC: 0.496685 cumulative IPC: 0.578812 (Simulation time: 4 hr 19 min 48 sec) 
Heartbeat CPU 0 instructions: 250000000 cycles: 362635495 heartbeat IPC: 0.483047 cumulative IPC: 0.573131 (Simulation time: 4 hr 28 min 52 sec) 
Finished CPU 0 instructions: 200000000 cycles: 348960608 cumulative IPC: 0.573131 (Simulation time: 4 hr 28 min 52 sec) 

ChampSim completed all CPUs

Region of Interest Statistics

CPU 0 cumulative IPC: 0.573131 instructions: 200000000 cycles: 348960608
ITLB TOTAL     ACCESS:   26530634  HIT:   26530634  MISS:          0  HIT %:        100  MISS %:          0   MPKI: 0
ITLB LOAD TRANSLATION ACCESS:   26530634  HIT:   26530634  MISS:          0  HIT %:        100  MISS %:          0   MPKI: 0
ITLB PREFETCH  REQUESTED:          0  ISSUED:          0  USEFUL:          0  USELESS:          0
ITLB USEFUL LOAD PREFETCHES:          0 PREFETCH ISSUED TO LOWER LEVEL:          0  ACCURACY: -nan
ITLB TIMELY PREFETCHES:          0 LATE PREFETCHES: 0 DROPPED PREFETCHES: 0
ITLB PREFETCHES SAME FILL-ORIGIN LEVEL: 0 DIFFERENT FILL-ORIGIN LEVEL: 0
ITLB AVERAGE MISS LATENCY: -nan cycles
ITLB RQ	ACCESS:   34412612	FORWARD:          0	MERGED:    7881978	TO_CACHE:   26530634

DTLB TOTAL     ACCESS:   37953687  HIT:   37727974  MISS:     225713  HIT %:    99.4053  MISS %:   0.594706   MPKI: 1.12857
DTLB LOAD TRANSLATION ACCESS:   37953687  HIT:   37727974  MISS:     225713  HIT %:    99.4053  MISS %:   0.594706   MPKI: 1.12857
DTLB PREFETCH  REQUESTED:          0  ISSUED:          0  USEFUL:          0  USELESS:          0
DTLB USEFUL LOAD PREFETCHES:          0 PREFETCH ISSUED TO LOWER LEVEL:          0  ACCURACY: -nan
DTLB TIMELY PREFETCHES:          0 LATE PREFETCHES: 0 DROPPED PREFETCHES: 0
DTLB PREFETCHES SAME FILL-ORIGIN LEVEL: 0 DIFFERENT FILL-ORIGIN LEVEL: 0
DTLB AVERAGE MISS LATENCY: 101.935 cycles
DTLB RQ	ACCESS:   55795981	FORWARD:          0	MERGED:   17759087	TO_CACHE:   38036894

STLB TOTAL     ACCESS:    1351828  HIT:    1229377  MISS:     122451  HIT %:    90.9418  MISS %:    9.05818   MPKI: 0.612255
STLB LOAD TRANSLATION ACCESS:     225713  HIT:     103262  MISS:     122451  HIT %:    45.7492  MISS %:    54.2508   MPKI: 0.612255
STLB TRANSLATION FROM L1D PREFETCHER ACCESS:    1126115  HIT:    1126115  MISS:          0  HIT %:        100  MISS %:          0   MPKI: 0
STLB PREFETCH  REQUESTED:          0  ISSUED:          0  USEFUL:          0  USELESS:          0
STLB USEFUL LOAD PREFETCHES:          0 PREFETCH ISSUED TO LOWER LEVEL:          0  ACCURACY: -nan
STLB TIMELY PREFETCHES:          0 LATE PREFETCHES: 2376 DROPPED PREFETCHES: 760688
STLB PREFETCHES SAME FILL-ORIGIN LEVEL: 0 DIFFERENT FILL-ORIGIN LEVEL: 0
STLB AVERAGE MISS LATENCY: 170.466 cycles
STLB RQ	ACCESS:   11411405	FORWARD:          0	MERGED:    9237758	TO_CACHE:    2173647

STLB Hit, L1D data hit: 0
STLB Hit, L2C data hit: 0
STLB Hit, LLC data hit: 0
STLB Hit, LLC data miss: 0
STLB STLB hints to L2: 0
L1D TOTAL     ACCESS:   58642908  HIT:   45708467  MISS:   12934441  HIT %:    77.9437  MISS %:    22.0563   MPKI: 64.6722
L1D LOAD      ACCESS:   21599739  HIT:   20237964  MISS:    1361775  HIT %:    93.6954  MISS %:    6.30459   MPKI: 6.80887
L1D RFO       ACCESS:   33848018  HIT:   22877510  MISS:   10970508  HIT %:    67.5889  MISS %:    32.4111   MPKI: 54.8525
L1D PREFETCH  ACCESS:    3195151  HIT:    2592993  MISS:     602158  HIT %:     81.154  MISS %:     18.846   MPKI: 3.01079
L1D PREFETCH  REQUESTED:   31833787  ISSUED:   23692312  USEFUL:     597440  USELESS:       4721
L1D USEFUL LOAD PREFETCHES:     597440 PREFETCH ISSUED TO LOWER LEVEL:    5853437  ACCURACY: 10.2067
L1D TIMELY PREFETCHES:     597440 LATE PREFETCHES: 7255 DROPPED PREFETCHES: 2627990
L1D PREFETCHES SAME FILL-ORIGIN LEVEL: 610388 DIFFERENT FILL-ORIGIN LEVEL: 5243049
L1D AVERAGE MISS LATENCY: 323.384 cycles
L1D RQ	ACCESS:   48201873	FORWARD:          0	MERGED:   24218192	TO_CACHE:   21798287
L1D WQ	ACCESS:   34563860	FORWARD:    2185394	MERGED:     566166	TO_CACHE:   33997694
L1D PQ	ACCESS:   12506620	FORWARD:          0	MERGED:    1320928	TO_CACHE:   11185692

L1D UNIQUE REGIONS ACCESSED: 0
L1D REGIONS CONFLICTS: 0
L1D Cross Page Prefetch Requests: 4018097
L1D Same Page Prefetch Requests: 12121672
L1D ROI Sum of L1D PQ occupancy: 1897225099
L1D PREFETCHES PUSHED FROM L2C: 0
L1I TOTAL     ACCESS:   34412610  HIT:   34412610  MISS:          0  HIT %:        100  MISS %:          0   MPKI: 0
L1I LOAD      ACCESS:   34412610  HIT:   34412610  MISS:          0  HIT %:        100  MISS %:          0   MPKI: 0
L1I PREFETCH  REQUESTED:          0  ISSUED:          0  USEFUL:          0  USELESS:          0
L1I USEFUL LOAD PREFETCHES:          0 PREFETCH ISSUED TO LOWER LEVEL:          0  ACCURACY: -nan
L1I TIMELY PREFETCHES:          0 LATE PREFETCHES: 0 DROPPED PREFETCHES: 0
L1I PREFETCHES SAME FILL-ORIGIN LEVEL: 0 DIFFERENT FILL-ORIGIN LEVEL: 0
L1I AVERAGE MISS LATENCY: -nan cycles
L1I RQ	ACCESS:   49048635	FORWARD:          0	MERGED:   14636023	TO_CACHE:   34412612

BTB TOTAL     ACCESS:    3122106  HIT:    3122100  MISS:          6  HIT %:    99.9998  MISS %: 0.000192178   MPKI: 3e-05
BTB BRANCH_DIRECT_JUMP	ACCESS:     397756  HIT:     397755  MISS:          1
BTB BRANCH_INDIRECT	ACCESS:          0  HIT:          0  MISS:          0
BTB BRANCH_CONDITIONAL	ACCESS:    2724350  HIT:    2724345  MISS:          5
BTB BRANCH_DIRECT_CALL	ACCESS:          0  HIT:          0  MISS:          0
BTB BRANCH_INDIRECT_CALL	ACCESS:          0  HIT:          0  MISS:          0
BTB BRANCH_RETURN	ACCESS:          0  HIT:          0  MISS:          0
BTB BRANCH_OTHER ACCESS:          0  HIT:          0  MISS:          0

L2C TOTAL     ACCESS:   29813168  HIT:   21164473  MISS:    8648695  HIT %:    70.9904  MISS %:    29.0096   MPKI: 43.2435
L2C LOAD      ACCESS:    1354520  HIT:    1021688  MISS:     332832  HIT %:     75.428  MISS %:     24.572   MPKI: 1.66416
L2C DATA LOAD MPKI: 1.66416
L2C INSTRUCTION LOAD MPKI: 0
L2C RFO       ACCESS:   10970503  HIT:    4951841  MISS:    6018662  HIT %:    45.1378  MISS %:    54.8622   MPKI: 30.0933
L2C PREFETCH  ACCESS:    5404634  HIT:    3774731  MISS:    1629903  HIT %:    69.8425  MISS %:    30.1575   MPKI: 8.14951
L2C DATA PREFETCH MPKI: 8.14951
L2C INSTRUCTION PREFETCH MPKI: 0
L2C WRITEBACK ACCESS:   10970504  HIT:   10319627  MISS:     650877  HIT %:     94.067  MISS %:    5.93297   MPKI: 3.25439
L2C LOAD TRANSLATION ACCESS:     122454  HIT:     110479  MISS:      11975  HIT %:    90.2208  MISS %:    9.77918   MPKI: 0.059875
L2C TRANSLATION FROM L1D PREFETCHER ACCESS:     990553  HIT:     986107  MISS:       4446  HIT %:    99.5512  MISS %:    0.44884   MPKI: 0.02223
L2C PREFETCH  REQUESTED:          0  ISSUED:          0  USEFUL:    1025591  USELESS:     610162
L2C USEFUL LOAD PREFETCHES:    1025591 PREFETCH ISSUED TO LOWER LEVEL:    1681142  ACCURACY: 61.0056
L2C TIMELY PREFETCHES:    1025591 LATE PREFETCHES: 51239 DROPPED PREFETCHES: 0
L2C PREFETCHES SAME FILL-ORIGIN LEVEL: 1490923 DIFFERENT FILL-ORIGIN LEVEL: 0
L2C AVERAGE MISS LATENCY: 566.491 cycles
L2C RQ	ACCESS:   13438043	FORWARD:          0	MERGED:          0	TO_CACHE:   13438038
L2C WQ	ACCESS:   10970504	FORWARD:          5	MERGED:          0	TO_CACHE:   10970504
L2C PQ	ACCESS:    5751528	FORWARD:          0	MERGED:       1808	TO_CACHE:    5749720

L2C Instructions Evicting Data 0
L2C Translations Evicting Data 16371
L2C Data Evicting Data 7965937
L2C Instructions Evicting Instructions 0
L2C Translations Evicting Instructions 0
L2C Data Evicting Instructions 0
L2C Instructions Evicting Translations 0
L2C Translations Evicting Translations 50
L2C Data Evicting Translations 15460
L2C Dense regions hint from L2: 0
PSCL5 TOTAL     ACCESS:     885515  HIT:     885515  MISS:          0  HIT %:        100  MISS %:          0   MPKI: 0
PSCL5 LOAD TRANSLATION ACCESS:     122451  HIT:     122451  MISS:          0  HIT %:        100  MISS %:          0   MPKI: 0
PSCL5 TRANSLATION FROM L1D PREFETCHER ACCESS:     763064  HIT:     763064  MISS:          0  HIT %:        100  MISS %:          0   MPKI: 0
PSCL5 PREFETCH  REQUESTED:          0  ISSUED:          0  USEFUL:          0  USELESS:          0
PSCL5 USEFUL LOAD PREFETCHES:          0 PREFETCH ISSUED TO LOWER LEVEL:          0  ACCURACY: -nan
PSCL5 TIMELY PREFETCHES:          0 LATE PREFETCHES: 0 DROPPED PREFETCHES: 0
PSCL5 PREFETCHES SAME FILL-ORIGIN LEVEL: 0 DIFFERENT FILL-ORIGIN LEVEL: 0

PSCL4 TOTAL     ACCESS:     885515  HIT:     885515  MISS:          0  HIT %:        100  MISS %:          0   MPKI: 0
PSCL4 LOAD TRANSLATION ACCESS:     122451  HIT:     122451  MISS:          0  HIT %:        100  MISS %:          0   MPKI: 0
PSCL4 TRANSLATION FROM L1D PREFETCHER ACCESS:     763064  HIT:     763064  MISS:          0  HIT %:        100  MISS %:          0   MPKI: 0
PSCL4 PREFETCH  REQUESTED:          0  ISSUED:          0  USEFUL:          0  USELESS:          0
PSCL4 USEFUL LOAD PREFETCHES:          0 PREFETCH ISSUED TO LOWER LEVEL:          0  ACCURACY: -nan
PSCL4 TIMELY PREFETCHES:          0 LATE PREFETCHES: 0 DROPPED PREFETCHES: 0
PSCL4 PREFETCHES SAME FILL-ORIGIN LEVEL: 0 DIFFERENT FILL-ORIGIN LEVEL: 0

PSCL3 TOTAL     ACCESS:     885515  HIT:     885514  MISS:          1  HIT %:    99.9999  MISS %: 0.000112929   MPKI: 5e-06
PSCL3 LOAD TRANSLATION ACCESS:     122451  HIT:     122450  MISS:          1  HIT %:    99.9992  MISS %: 0.000816653   MPKI: 5e-06
PSCL3 TRANSLATION FROM L1D PREFETCHER ACCESS:     763064  HIT:     763064  MISS:          0  HIT %:        100  MISS %:          0   MPKI: 0
PSCL3 PREFETCH  REQUESTED:          0  ISSUED:          0  USEFUL:          0  USELESS:          0
PSCL3 USEFUL LOAD PREFETCHES:          0 PREFETCH ISSUED TO LOWER LEVEL:          0  ACCURACY: -nan
PSCL3 TIMELY PREFETCHES:          0 LATE PREFETCHES: 0 DROPPED PREFETCHES: 0
PSCL3 PREFETCHES SAME FILL-ORIGIN LEVEL: 0 DIFFERENT FILL-ORIGIN LEVEL: 0

PSCL2 TOTAL     ACCESS:     655911  HIT:     655788  MISS:        123  HIT %:    99.9812  MISS %:  0.0187525   MPKI: 0.000615
PSCL2 LOAD TRANSLATION ACCESS:     122451  HIT:     122328  MISS:        123  HIT %:    99.8996  MISS %:   0.100448   MPKI: 0.000615
PSCL2 TRANSLATION FROM L1D PREFETCHER ACCESS:     533460  HIT:     533460  MISS:          0  HIT %:        100  MISS %:          0   MPKI: 0
PSCL2 PREFETCH  REQUESTED:          0  ISSUED:          0  USEFUL:          0  USELESS:          0
PSCL2 USEFUL LOAD PREFETCHES:          0 PREFETCH ISSUED TO LOWER LEVEL:          0  ACCURACY: -nan
PSCL2 TIMELY PREFETCHES:          0 LATE PREFETCHES: 0 DROPPED PREFETCHES: 0
PSCL2 PREFETCHES SAME FILL-ORIGIN LEVEL: 0 DIFFERENT FILL-ORIGIN LEVEL: 0

LLC TOTAL     ACCESS:   14032441  HIT:    5714943  MISS:    8317498  HIT %:    40.7266  MISS %:    59.2734   MPKI: 41.5875
LLC LOAD      ACCESS:     281593  HIT:        912  MISS:     280681  HIT %:   0.323872  MISS %:    99.6761   MPKI: 1.40341
LLC RFO       ACCESS:    6018583  HIT:     141864  MISS:    5876719  HIT %:     2.3571  MISS %:    97.6429   MPKI: 29.3836
LLC PREFETCH  ACCESS:    1681142  HIT:       2559  MISS:    1678583  HIT %:   0.152218  MISS %:    99.8478   MPKI: 8.39292
LLC WRITEBACK ACCESS:    6034702  HIT:    5568703  MISS:     465999  HIT %:     92.278  MISS %:    7.72199   MPKI: 2.32999
LLC LOAD TRANSLATION ACCESS:      11975  HIT:        389  MISS:      11586  HIT %:    3.24843  MISS %:    96.7516   MPKI: 0.05793
LLC TRANSLATION FROM L1D PREFETCHER ACCESS:       4446  HIT:        516  MISS:       3930  HIT %:    11.6059  MISS %:    88.3941   MPKI: 0.01965
LLC PREFETCH  REQUESTED:          0  ISSUED:          0  USEFUL:       1129  USELESS:    1685953
LLC USEFUL LOAD PREFETCHES:       1129 PREFETCH ISSUED TO LOWER LEVEL:    1678583  ACCURACY: 0.0672591
LLC TIMELY PREFETCHES:       1129 LATE PREFETCHES: 0 DROPPED PREFETCHES: 0
LLC PREFETCHES SAME FILL-ORIGIN LEVEL: 0 DIFFERENT FILL-ORIGIN LEVEL: 0
LLC AVERAGE MISS LATENCY: 563.383 cycles
LLC RQ	ACCESS:    6316681	FORWARD:          0	MERGED:          0	TO_CACHE:    6316602
LLC WQ	ACCESS:    6034702	FORWARD:         79	MERGED:          0	TO_CACHE:    6034702
LLC PQ	ACCESS:    1681142	FORWARD:          0	MERGED:          0	TO_CACHE:    1681142

LLC Dense regions hint to LLC: 0

RAW hits: 2192019
Loads Generated: 50393892
Loads sent to L1D: 48201873
Stores Generated: 34563857
Stores sent to L1D: 34563860
Major fault: 0 Minor fault: 72955
Allocated PAGES: 72955

DRAM Statistics
 CHANNEL 0
 RQ ROW_BUFFER_HIT:     825192  ROW_BUFFER_MISS:    7026307
 DBUS_CONGESTED:          0
 WQ ROW_BUFFER_HIT:     901874  ROW_BUFFER_MISS:    4971002  FULL:       3908

 AVG_CONGESTED_CYCLE: -
 All warmup complete: 2
Channel 0 Bank busy for read cycles: 0
Channel 0 Bank busy for write cycles: 0
Channel 0
Rank 0
0banks busy for read cycles: 61560
0banks busy for write cycles: 0
1banks busy for read cycles: 4101868
1banks busy for write cycles: 590382
2banks busy for read cycles: 7042473
2banks busy for write cycles: 590379
3banks busy for read cycles: 13006032
3banks busy for write cycles: 590372
4banks busy for read cycles: 16530407
4banks busy for write cycles: 590360
5banks busy for read cycles: 32549471
5banks busy for write cycles: 590448
6banks busy for read cycles: 39390580
6banks busy for write cycles: 613280
7banks busy for read cycles: 46355737
7banks busy for write cycles: 7087343
8banks busy for read cycles: 50286202
8banks busy for write cycles: 128983715

CPU 0 Branch Prediction Accuracy: 97.3725% MPKI: 0.357935 Average ROB Occupancy at Mispredict: 181.733
Branch types
NOT_BRANCH: 196877391 98.4387%
BRANCH_DIRECT_JUMP: 397756 0.198878%
BRANCH_INDIRECT: 0 0%
BRANCH_CONDITIONAL: 2724544 1.36227%
BRANCH_DIRECT_CALL: 0 0%
BRANCH_INDIRECT_CALL: 0 0%
BRANCH_RETURN: 0 0%
BRANCH_OTHER: 0 0%

DRAM PAGES: 1048576
Allocated PAGES: 72955
