
*** ChampSim Multicore Out-of-Order Simulator ***

Warmup Instructions: 50000000
Simulation Instructions: 200000000
Number of CPUs: 1
LLC sets: 2048
LLC ways: 16
Off-chip DRAM Size: 4096 MB Channels: 1 Width: 64-bit Data Rate: 6400 MT/s
argv[0]: ./ChampSim/Berti/bin/multiperspective_perceptron8kb-no-vberti-no-no-no-no-no-lru-lru-lru-srrip-drrip-lru-lru-lru-1core-no
argv[1]: -warmup_instructions
argv[2]: 50000000
argv[3]: -simulation_instructions
argv[4]: 200000000
argv[5]: -traces
argv[6]: traces/spec2k17_ten/654.roms_s-1021B.champsimtrace.xz
CPU 0 runs traces/spec2k17_ten/654.roms_s-1021B.champsimtrace.xz
.xz
CPU 0 Multiperspective perceptron branch predictor
BTB has LRU replacement policy
ITLB has LRU replacement policy
DTLB has LRU replacement policy
STLB has LRU replacement policy
L1I has LRU replacement policy
History Sets: 8
History Ways: 16
BERTI Size: 16
BERTI Stride Size: 16
L1D has LRU replacement policy
Initialize SRRIP state for L2C
Initialize DRRIP state for LLC
Heartbeat CPU 0 instructions: 10000000 cycles: 2766494 heartbeat IPC: 3.61468 cumulative IPC: 3.61468 (Simulation time: 0 hr 7 min 51 sec) 
Heartbeat CPU 0 instructions: 20000003 cycles: 5532288 heartbeat IPC: 3.6156 cumulative IPC: 3.61514 (Simulation time: 0 hr 15 min 25 sec) 
Heartbeat CPU 0 instructions: 30000000 cycles: 8298227 heartbeat IPC: 3.61541 cumulative IPC: 3.61523 (Simulation time: 0 hr 19 min 7 sec) 
Heartbeat CPU 0 instructions: 40000003 cycles: 11064043 heartbeat IPC: 3.61557 cumulative IPC: 3.61532 (Simulation time: 0 hr 21 min 27 sec) 
Heartbeat CPU 0 instructions: 50000001 cycles: 13829960 heartbeat IPC: 3.61544 cumulative IPC: 3.61534 (Simulation time: 0 hr 24 min 10 sec) 

Warmup complete CPU 0 instructions: 50000001 cycles: 13829960 (Simulation time: 0 hr 24 min 10 sec) 

Heartbeat CPU 0 instructions: 60000001 cycles: 27392487 heartbeat IPC: 0.737326 cumulative IPC: 0.737326 (Simulation time: 0 hr 27 min 50 sec) 
Heartbeat CPU 0 instructions: 70000000 cycles: 40955100 heartbeat IPC: 0.737321 cumulative IPC: 0.737323 (Simulation time: 0 hr 33 min 3 sec) 
Heartbeat CPU 0 instructions: 80000000 cycles: 54519052 heartbeat IPC: 0.737248 cumulative IPC: 0.737298 (Simulation time: 0 hr 36 min 44 sec) 
Heartbeat CPU 0 instructions: 90000002 cycles: 68078193 heartbeat IPC: 0.73751 cumulative IPC: 0.737351 (Simulation time: 0 hr 39 min 51 sec) 
Heartbeat CPU 0 instructions: 100000000 cycles: 81643857 heartbeat IPC: 0.737155 cumulative IPC: 0.737312 (Simulation time: 0 hr 43 min 48 sec) 
Heartbeat CPU 0 instructions: 110000000 cycles: 94657139 heartbeat IPC: 0.768446 cumulative IPC: 0.742325 (Simulation time: 0 hr 50 min 52 sec) 
Heartbeat CPU 0 instructions: 120000002 cycles: 107239710 heartbeat IPC: 0.79475 cumulative IPC: 0.749386 (Simulation time: 1 hr 2 min 55 sec) 
Heartbeat CPU 0 instructions: 130000002 cycles: 120523952 heartbeat IPC: 0.752772 cumulative IPC: 0.749808 (Simulation time: 1 hr 14 min 21 sec) 
Heartbeat CPU 0 instructions: 140000003 cycles: 133187557 heartbeat IPC: 0.789665 cumulative IPC: 0.754037 (Simulation time: 1 hr 23 min 54 sec) 
Heartbeat CPU 0 instructions: 150000000 cycles: 146270568 heartbeat IPC: 0.76435 cumulative IPC: 0.755055 (Simulation time: 1 hr 32 min 22 sec) 
Heartbeat CPU 0 instructions: 160000000 cycles: 159826956 heartbeat IPC: 0.73766 cumulative IPC: 0.75344 (Simulation time: 1 hr 36 min 6 sec) 
Heartbeat CPU 0 instructions: 170000000 cycles: 173385054 heartbeat IPC: 0.737567 cumulative IPC: 0.752091 (Simulation time: 1 hr 40 min 44 sec) 
Heartbeat CPU 0 instructions: 180000000 cycles: 186941530 heartbeat IPC: 0.737655 cumulative IPC: 0.750961 (Simulation time: 1 hr 44 min 38 sec) 
Heartbeat CPU 0 instructions: 190000002 cycles: 200497689 heartbeat IPC: 0.737672 cumulative IPC: 0.749996 (Simulation time: 1 hr 49 min 23 sec) 
Heartbeat CPU 0 instructions: 200000002 cycles: 214052198 heartbeat IPC: 0.737762 cumulative IPC: 0.749168 (Simulation time: 1 hr 55 min 0 sec) 
Heartbeat CPU 0 instructions: 210000000 cycles: 227609776 heartbeat IPC: 0.737595 cumulative IPC: 0.748434 (Simulation time: 1 hr 58 min 49 sec) 
Heartbeat CPU 0 instructions: 220000000 cycles: 241166370 heartbeat IPC: 0.737648 cumulative IPC: 0.74779 (Simulation time: 2 hr 3 min 47 sec) 
Heartbeat CPU 0 instructions: 230000000 cycles: 254722260 heartbeat IPC: 0.737687 cumulative IPC: 0.747222 (Simulation time: 2 hr 8 min 37 sec) 
Heartbeat CPU 0 instructions: 240000003 cycles: 268277597 heartbeat IPC: 0.737717 cumulative IPC: 0.746716 (Simulation time: 2 hr 11 min 28 sec) 
Heartbeat CPU 0 instructions: 250000002 cycles: 281835342 heartbeat IPC: 0.737586 cumulative IPC: 0.746254 (Simulation time: 2 hr 14 min 37 sec) 
Finished CPU 0 instructions: 200000001 cycles: 268005382 cumulative IPC: 0.746254 (Simulation time: 2 hr 14 min 37 sec) 

ChampSim completed all CPUs

Region of Interest Statistics

CPU 0 cumulative IPC: 0.746254 instructions: 200000001 cycles: 268005382
ITLB TOTAL     ACCESS:   31168396  HIT:   31168394  MISS:          2  HIT %:        100  MISS %: 6.41676e-06   MPKI: 1e-05
ITLB LOAD TRANSLATION ACCESS:   31168396  HIT:   31168394  MISS:          2  HIT %:        100  MISS %: 6.41676e-06   MPKI: 1e-05
ITLB PREFETCH  REQUESTED:          0  ISSUED:          0  USEFUL:          0  USELESS:          0
ITLB USEFUL LOAD PREFETCHES:          0 PREFETCH ISSUED TO LOWER LEVEL:          0  ACCURACY: -nan
ITLB TIMELY PREFETCHES:          0 LATE PREFETCHES: 0 DROPPED PREFETCHES: 0
ITLB PREFETCHES SAME FILL-ORIGIN LEVEL: 0 DIFFERENT FILL-ORIGIN LEVEL: 0
ITLB AVERAGE MISS LATENCY: 125.5 cycles
ITLB RQ	ACCESS:   39290079	FORWARD:          0	MERGED:    8121684	TO_CACHE:   31168395

DTLB TOTAL     ACCESS:   33699630  HIT:   32867356  MISS:     832274  HIT %:    97.5303  MISS %:    2.46968   MPKI: 4.16137
DTLB LOAD TRANSLATION ACCESS:   33699630  HIT:   32867356  MISS:     832274  HIT %:    97.5303  MISS %:    2.46968   MPKI: 4.16137
DTLB PREFETCH  REQUESTED:          0  ISSUED:          0  USEFUL:          0  USELESS:          0
DTLB USEFUL LOAD PREFETCHES:          0 PREFETCH ISSUED TO LOWER LEVEL:          0  ACCURACY: -nan
DTLB TIMELY PREFETCHES:          0 LATE PREFETCHES: 0 DROPPED PREFETCHES: 0
DTLB PREFETCHES SAME FILL-ORIGIN LEVEL: 0 DIFFERENT FILL-ORIGIN LEVEL: 0
DTLB AVERAGE MISS LATENCY: 11.0955 cycles
DTLB RQ	ACCESS:   42649141	FORWARD:          0	MERGED:    8947955	TO_CACHE:   33701186

STLB TOTAL     ACCESS:    2708135  HIT:    2706041  MISS:       2094  HIT %:    99.9227  MISS %:  0.0773226   MPKI: 0.01047
STLB LOAD TRANSLATION ACCESS:     832276  HIT:     830182  MISS:       2094  HIT %:    99.7484  MISS %:   0.251599   MPKI: 0.01047
STLB TRANSLATION FROM L1D PREFETCHER ACCESS:    1875859  HIT:    1875859  MISS:          0  HIT %:        100  MISS %:          0   MPKI: 0
STLB PREFETCH  REQUESTED:          0  ISSUED:          0  USEFUL:          0  USELESS:          0
STLB USEFUL LOAD PREFETCHES:          0 PREFETCH ISSUED TO LOWER LEVEL:          0  ACCURACY: -nan
STLB TIMELY PREFETCHES:          0 LATE PREFETCHES: 32 DROPPED PREFETCHES: 120103
STLB PREFETCHES SAME FILL-ORIGIN LEVEL: 0 DIFFERENT FILL-ORIGIN LEVEL: 0
STLB AVERAGE MISS LATENCY: 433.259 cycles
STLB RQ	ACCESS:    6803539	FORWARD:          0	MERGED:    3975013	TO_CACHE:    2828526

STLB Hit, L1D data hit: 0
STLB Hit, L2C data hit: 0
STLB Hit, LLC data hit: 0
STLB Hit, LLC data miss: 0
STLB STLB hints to L2: 0
L1D TOTAL     ACCESS:   47877084  HIT:   47521523  MISS:     355561  HIT %:    99.2573  MISS %:   0.742654   MPKI: 1.7778
L1D LOAD      ACCESS:   28840600  HIT:   28746398  MISS:      94202  HIT %:    99.6734  MISS %:    0.32663   MPKI: 0.47101
L1D RFO       ACCESS:   13740893  HIT:   13687404  MISS:      53489  HIT %:    99.6107  MISS %:   0.389269   MPKI: 0.267445
L1D PREFETCH  ACCESS:    5295591  HIT:    5087721  MISS:     207870  HIT %:    96.0747  MISS %:    3.92534   MPKI: 1.03935
L1D PREFETCH  REQUESTED:   17883746  ISSUED:   12200823  USEFUL:     194904  USELESS:      12964
L1D USEFUL LOAD PREFETCHES:     194904 PREFETCH ISSUED TO LOWER LEVEL:     708809  ACCURACY: 27.4974
L1D TIMELY PREFETCHES:     194904 LATE PREFETCHES: 315 DROPPED PREFETCHES: 150345
L1D PREFETCHES SAME FILL-ORIGIN LEVEL: 208185 DIFFERENT FILL-ORIGIN LEVEL: 500624
L1D AVERAGE MISS LATENCY: 69.9142 cycles
L1D RQ	ACCESS:   43189770	FORWARD:          0	MERGED:   14149743	TO_CACHE:   28845481
L1D WQ	ACCESS:   14215278	FORWARD:     194546	MERGED:     411618	TO_CACHE:   13803660
L1D PQ	ACCESS:    6229560	FORWARD:          0	MERGED:     258297	TO_CACHE:    5971263

L1D UNIQUE REGIONS ACCESSED: 0
L1D REGIONS CONFLICTS: 0
L1D Cross Page Prefetch Requests: 1228023
L1D Same Page Prefetch Requests: 5016629
L1D ROI Sum of L1D PQ occupancy: 123711259
L1D PREFETCHES PUSHED FROM L2C: 0
L1I TOTAL     ACCESS:   39290040  HIT:   39289966  MISS:         74  HIT %:    99.9998  MISS %: 0.000188343   MPKI: 0.00037
L1I LOAD      ACCESS:   39290040  HIT:   39289966  MISS:         74  HIT %:    99.9998  MISS %: 0.000188343   MPKI: 0.00037
L1I PREFETCH  REQUESTED:          0  ISSUED:          0  USEFUL:          0  USELESS:          0
L1I USEFUL LOAD PREFETCHES:          0 PREFETCH ISSUED TO LOWER LEVEL:          0  ACCURACY: -nan
L1I TIMELY PREFETCHES:          0 LATE PREFETCHES: 0 DROPPED PREFETCHES: 0
L1I PREFETCHES SAME FILL-ORIGIN LEVEL: 0 DIFFERENT FILL-ORIGIN LEVEL: 0
L1I AVERAGE MISS LATENCY: 191.419 cycles
L1I RQ	ACCESS:   56181619	FORWARD:          0	MERGED:   16891540	TO_CACHE:   39290079

BTB TOTAL     ACCESS:   25367500  HIT:   24938588  MISS:     428912  HIT %:    98.3092  MISS %:    1.69079   MPKI: 2.14456
BTB BRANCH_DIRECT_JUMP	ACCESS:    2709971  HIT:    2709934  MISS:         37
BTB BRANCH_INDIRECT	ACCESS:     415743  HIT:     415740  MISS:          3
BTB BRANCH_CONDITIONAL	ACCESS:   20405809  HIT:   20405669  MISS:        140
BTB BRANCH_DIRECT_CALL	ACCESS:     917988  HIT:     917931  MISS:         57
BTB BRANCH_INDIRECT_CALL	ACCESS:          0  HIT:          0  MISS:          0
BTB BRANCH_RETURN	ACCESS:     917989  HIT:     489314  MISS:     428675
BTB BRANCH_OTHER ACCESS:          0  HIT:          0  MISS:          0

L2C TOTAL     ACCESS:    1160426  HIT:     928087  MISS:     232339  HIT %:    79.9781  MISS %:    20.0219   MPKI: 1.16169
L2C LOAD      ACCESS:      93956  HIT:      21210  MISS:      72746  HIT %:    22.5744  MISS %:    77.4256   MPKI: 0.36373
L2C DATA LOAD MPKI: 0.36336
L2C INSTRUCTION LOAD MPKI: 0.00037
L2C RFO       ACCESS:      53481  HIT:       5786  MISS:      47695  HIT %:    10.8188  MISS %:    89.1812   MPKI: 0.238475
L2C PREFETCH  ACCESS:     685895  HIT:     580674  MISS:     105221  HIT %:    84.6593  MISS %:    15.3407   MPKI: 0.526105
L2C DATA PREFETCH MPKI: 0.526105
L2C INSTRUCTION PREFETCH MPKI: 0
L2C WRITEBACK ACCESS:      83834  HIT:      79338  MISS:       4496  HIT %:     94.637  MISS %:    5.36298   MPKI: 0.02248
L2C LOAD TRANSLATION ACCESS:       3502  HIT:       1515  MISS:       1987  HIT %:     43.261  MISS %:     56.739   MPKI: 0.009935
L2C TRANSLATION FROM L1D PREFETCHER ACCESS:     239758  HIT:     239564  MISS:        194  HIT %:    99.9191  MISS %:  0.0809149   MPKI: 0.00097
L2C PREFETCH  REQUESTED:          0  ISSUED:          0  USEFUL:      10490  USELESS:      91053
L2C USEFUL LOAD PREFETCHES:      10490 PREFETCH ISSUED TO LOWER LEVEL:     105294  ACCURACY: 9.96258
L2C TIMELY PREFETCHES:      10490 LATE PREFETCHES: 73 DROPPED PREFETCHES: 0
L2C PREFETCHES SAME FILL-ORIGIN LEVEL: 52565 DIFFERENT FILL-ORIGIN LEVEL: 0
L2C AVERAGE MISS LATENCY: 109.351 cycles
L2C RQ	ACCESS:     390710	FORWARD:          0	MERGED:          0	TO_CACHE:     390697
L2C WQ	ACCESS:      83834	FORWARD:         15	MERGED:          0	TO_CACHE:      83834
L2C PQ	ACCESS:     708809	FORWARD:          0	MERGED:          2	TO_CACHE:     708805

L2C Instructions Evicting Data 44
L2C Translations Evicting Data 2127
L2C Data Evicting Data 217509
L2C Instructions Evicting Instructions 0
L2C Translations Evicting Instructions 0
L2C Data Evicting Instructions 293
L2C Instructions Evicting Translations 0
L2C Translations Evicting Translations 17
L2C Data Evicting Translations 2245
L2C Dense regions hint from L2: 0
PSCL5 TOTAL     ACCESS:     122229  HIT:     122229  MISS:          0  HIT %:        100  MISS %:          0   MPKI: 0
PSCL5 LOAD TRANSLATION ACCESS:       2094  HIT:       2094  MISS:          0  HIT %:        100  MISS %:          0   MPKI: 0
PSCL5 TRANSLATION FROM L1D PREFETCHER ACCESS:     120135  HIT:     120135  MISS:          0  HIT %:        100  MISS %:          0   MPKI: 0
PSCL5 PREFETCH  REQUESTED:          0  ISSUED:          0  USEFUL:          0  USELESS:          0
PSCL5 USEFUL LOAD PREFETCHES:          0 PREFETCH ISSUED TO LOWER LEVEL:          0  ACCURACY: -nan
PSCL5 TIMELY PREFETCHES:          0 LATE PREFETCHES: 0 DROPPED PREFETCHES: 0
PSCL5 PREFETCHES SAME FILL-ORIGIN LEVEL: 0 DIFFERENT FILL-ORIGIN LEVEL: 0

PSCL4 TOTAL     ACCESS:     122229  HIT:     122229  MISS:          0  HIT %:        100  MISS %:          0   MPKI: 0
PSCL4 LOAD TRANSLATION ACCESS:       2094  HIT:       2094  MISS:          0  HIT %:        100  MISS %:          0   MPKI: 0
PSCL4 TRANSLATION FROM L1D PREFETCHER ACCESS:     120135  HIT:     120135  MISS:          0  HIT %:        100  MISS %:          0   MPKI: 0
PSCL4 PREFETCH  REQUESTED:          0  ISSUED:          0  USEFUL:          0  USELESS:          0
PSCL4 USEFUL LOAD PREFETCHES:          0 PREFETCH ISSUED TO LOWER LEVEL:          0  ACCURACY: -nan
PSCL4 TIMELY PREFETCHES:          0 LATE PREFETCHES: 0 DROPPED PREFETCHES: 0
PSCL4 PREFETCHES SAME FILL-ORIGIN LEVEL: 0 DIFFERENT FILL-ORIGIN LEVEL: 0

PSCL3 TOTAL     ACCESS:     107262  HIT:     107237  MISS:         25  HIT %:    99.9767  MISS %:  0.0233074   MPKI: 0.000125
PSCL3 LOAD TRANSLATION ACCESS:       2094  HIT:       2069  MISS:         25  HIT %:    98.8061  MISS %:    1.19389   MPKI: 0.000125
PSCL3 TRANSLATION FROM L1D PREFETCHER ACCESS:     105168  HIT:     105168  MISS:          0  HIT %:        100  MISS %:          0   MPKI: 0
PSCL3 PREFETCH  REQUESTED:          0  ISSUED:          0  USEFUL:          0  USELESS:          0
PSCL3 USEFUL LOAD PREFETCHES:          0 PREFETCH ISSUED TO LOWER LEVEL:          0  ACCURACY: -nan
PSCL3 TIMELY PREFETCHES:          0 LATE PREFETCHES: 0 DROPPED PREFETCHES: 0
PSCL3 PREFETCHES SAME FILL-ORIGIN LEVEL: 0 DIFFERENT FILL-ORIGIN LEVEL: 0

PSCL2 TOTAL     ACCESS:      17532  HIT:      16139  MISS:       1393  HIT %:    92.0545  MISS %:    7.94547   MPKI: 0.006965
PSCL2 LOAD TRANSLATION ACCESS:       2094  HIT:        701  MISS:       1393  HIT %:    33.4766  MISS %:    66.5234   MPKI: 0.006965
PSCL2 TRANSLATION FROM L1D PREFETCHER ACCESS:      15438  HIT:      15438  MISS:          0  HIT %:        100  MISS %:          0   MPKI: 0
PSCL2 PREFETCH  REQUESTED:          0  ISSUED:          0  USEFUL:          0  USELESS:          0
PSCL2 USEFUL LOAD PREFETCHES:          0 PREFETCH ISSUED TO LOWER LEVEL:          0  ACCURACY: -nan
PSCL2 TIMELY PREFETCHES:          0 LATE PREFETCHES: 0 DROPPED PREFETCHES: 0
PSCL2 PREFETCHES SAME FILL-ORIGIN LEVEL: 0 DIFFERENT FILL-ORIGIN LEVEL: 0

LLC TOTAL     ACCESS:     294491  HIT:     177398  MISS:     117093  HIT %:    60.2389  MISS %:    39.7611   MPKI: 0.585465
LLC LOAD      ACCESS:      72674  HIT:      30264  MISS:      42410  HIT %:    41.6435  MISS %:    58.3565   MPKI: 0.21205
LLC RFO       ACCESS:      47694  HIT:      31333  MISS:      16361  HIT %:    65.6959  MISS %:    34.3041   MPKI: 0.081805
LLC PREFETCH  ACCESS:     105293  HIT:      48824  MISS:      56469  HIT %:    46.3697  MISS %:    53.6303   MPKI: 0.282345
LLC WRITEBACK ACCESS:      66649  HIT:      66249  MISS:        400  HIT %:    99.3998  MISS %:   0.600159   MPKI: 0.002
LLC LOAD TRANSLATION ACCESS:       1987  HIT:        681  MISS:       1306  HIT %:    34.2728  MISS %:    65.7272   MPKI: 0.00653
LLC TRANSLATION FROM L1D PREFETCHER ACCESS:        194  HIT:         47  MISS:        147  HIT %:    24.2268  MISS %:    75.7732   MPKI: 0.000735
LLC PREFETCH  REQUESTED:          0  ISSUED:          0  USEFUL:      24177  USELESS:      23517
LLC USEFUL LOAD PREFETCHES:      24177 PREFETCH ISSUED TO LOWER LEVEL:      56469  ACCURACY: 42.8146
LLC TIMELY PREFETCHES:      24177 LATE PREFETCHES: 0 DROPPED PREFETCHES: 0
LLC PREFETCHES SAME FILL-ORIGIN LEVEL: 0 DIFFERENT FILL-ORIGIN LEVEL: 0
LLC AVERAGE MISS LATENCY: 157.707 cycles
LLC RQ	ACCESS:     122549	FORWARD:          0	MERGED:          0	TO_CACHE:     122549
LLC WQ	ACCESS:      66649	FORWARD:          1	MERGED:          0	TO_CACHE:      66649
LLC PQ	ACCESS:     105294	FORWARD:          0	MERGED:          0	TO_CACHE:     105293

LLC Dense regions hint to LLC: 0

RAW hits: 1967435
Loads Generated: 45157206
Loads sent to L1D: 43189770
Stores Generated: 14215272
Stores sent to L1D: 14215278
Major fault: 0 Minor fault: 2932
Allocated PAGES: 2932

DRAM Statistics
 CHANNEL 0
 RQ ROW_BUFFER_HIT:      33236  ROW_BUFFER_MISS:      83432
 DBUS_CONGESTED:        218
 WQ ROW_BUFFER_HIT:       2320  ROW_BUFFER_MISS:       8949  FULL:          0

 AVG_CONGESTED_CYCLE: 4
 All warmup complete: 2
Channel 0 Bank busy for read cycles: 0
Channel 0 Bank busy for write cycles: 0
Channel 0
Rank 0
0banks busy for read cycles: 257900433
0banks busy for write cycles: 6384
1banks busy for read cycles: 5393907
1banks busy for write cycles: 980097
2banks busy for read cycles: 1994253
2banks busy for write cycles: 175994
3banks busy for read cycles: 727162
3banks busy for write cycles: 85418
4banks busy for read cycles: 323082
4banks busy for write cycles: 55825
5banks busy for read cycles: 129954
5banks busy for write cycles: 41993
6banks busy for read cycles: 46071
6banks busy for write cycles: 31609
7banks busy for read cycles: 21479
7banks busy for write cycles: 28668
8banks busy for read cycles: 30636
8banks busy for write cycles: 32418

CPU 0 Branch Prediction Accuracy: 99.9081% MPKI: 0.11513 Average ROB Occupancy at Mispredict: 49.3499
Branch types
NOT_BRANCH: 169977885 84.9889%
BRANCH_DIRECT_JUMP: 2709971 1.35499%
BRANCH_INDIRECT: 415743 0.207871%
BRANCH_CONDITIONAL: 25060389 12.5302%
BRANCH_DIRECT_CALL: 917988 0.458994%
BRANCH_INDIRECT_CALL: 0 0%
BRANCH_RETURN: 917989 0.458994%
BRANCH_OTHER: 0 0%

DRAM PAGES: 1048576
Allocated PAGES: 2932
