
*** ChampSim Multicore Out-of-Order Simulator ***

Warmup Instructions: 50000000
Simulation Instructions: 200000000
Number of CPUs: 1
LLC sets: 2048
LLC ways: 16
Off-chip DRAM Size: 4096 MB Channels: 1 Width: 64-bit Data Rate: 6400 MT/s
argv[0]: ./ChampSim/Berti/bin/multiperspective_perceptron8kb-no-vberti-no-no-no-no-no-lru-lru-lru-srrip-drrip-lru-lru-lru-1core-no
argv[1]: -warmup_instructions
argv[2]: 50000000
argv[3]: -simulation_instructions
argv[4]: 200000000
argv[5]: -traces
argv[6]: traces/spec2k17_ten/654.roms_s-1070B.champsimtrace.xz
CPU 0 runs traces/spec2k17_ten/654.roms_s-1070B.champsimtrace.xz
.xz
CPU 0 Multiperspective perceptron branch predictor
BTB has LRU replacement policy
ITLB has LRU replacement policy
DTLB has LRU replacement policy
STLB has LRU replacement policy
L1I has LRU replacement policy
History Sets: 8
History Ways: 16
BERTI Size: 16
BERTI Stride Size: 16
L1D has LRU replacement policy
Initialize SRRIP state for L2C
Initialize DRRIP state for LLC
Heartbeat CPU 0 instructions: 10000002 cycles: 3109982 heartbeat IPC: 3.21545 cumulative IPC: 3.21545 (Simulation time: 0 hr 9 min 56 sec) 
Heartbeat CPU 0 instructions: 20000002 cycles: 6328637 heartbeat IPC: 3.10689 cumulative IPC: 3.16024 (Simulation time: 0 hr 18 min 10 sec) 
Heartbeat CPU 0 instructions: 30000003 cycles: 9357571 heartbeat IPC: 3.30149 cumulative IPC: 3.20596 (Simulation time: 0 hr 24 min 24 sec) 
Heartbeat CPU 0 instructions: 40000001 cycles: 12660287 heartbeat IPC: 3.02781 cumulative IPC: 3.15949 (Simulation time: 0 hr 33 min 13 sec) 
Heartbeat CPU 0 instructions: 50000001 cycles: 15846965 heartbeat IPC: 3.13806 cumulative IPC: 3.15518 (Simulation time: 0 hr 40 min 14 sec) 

Warmup complete CPU 0 instructions: 50000001 cycles: 15846965 (Simulation time: 0 hr 40 min 14 sec) 

Heartbeat CPU 0 instructions: 60000000 cycles: 30883652 heartbeat IPC: 0.66504 cumulative IPC: 0.66504 (Simulation time: 0 hr 52 min 33 sec) 
Heartbeat CPU 0 instructions: 70000002 cycles: 39851679 heartbeat IPC: 1.11507 cumulative IPC: 0.83317 (Simulation time: 1 hr 3 min 25 sec) 
Heartbeat CPU 0 instructions: 80000003 cycles: 50873964 heartbeat IPC: 0.907253 cumulative IPC: 0.856482 (Simulation time: 1 hr 12 min 42 sec) 
Heartbeat CPU 0 instructions: 90000000 cycles: 63876124 heartbeat IPC: 0.769103 cumulative IPC: 0.832827 (Simulation time: 1 hr 19 min 29 sec) 
Heartbeat CPU 0 instructions: 100000003 cycles: 72224350 heartbeat IPC: 1.19786 cumulative IPC: 0.88688 (Simulation time: 1 hr 27 min 50 sec) 
Heartbeat CPU 0 instructions: 110000000 cycles: 87827838 heartbeat IPC: 0.640882 cumulative IPC: 0.833555 (Simulation time: 1 hr 38 min 8 sec) 
Heartbeat CPU 0 instructions: 120000002 cycles: 96213415 heartbeat IPC: 1.19252 cumulative IPC: 0.87101 (Simulation time: 1 hr 44 min 51 sec) 
Heartbeat CPU 0 instructions: 130000002 cycles: 108115481 heartbeat IPC: 0.84019 cumulative IPC: 0.867035 (Simulation time: 1 hr 51 min 34 sec) 
Heartbeat CPU 0 instructions: 140000001 cycles: 120185741 heartbeat IPC: 0.828483 cumulative IPC: 0.862575 (Simulation time: 2 hr 0 min 32 sec) 
Heartbeat CPU 0 instructions: 150000003 cycles: 128901736 heartbeat IPC: 1.14732 cumulative IPC: 0.884527 (Simulation time: 2 hr 5 min 47 sec) 
Heartbeat CPU 0 instructions: 160000000 cycles: 144327510 heartbeat IPC: 0.648265 cumulative IPC: 0.856161 (Simulation time: 2 hr 15 min 44 sec) 
Heartbeat CPU 0 instructions: 170000000 cycles: 152718152 heartbeat IPC: 1.1918 cumulative IPC: 0.876737 (Simulation time: 2 hr 23 min 16 sec) 
Heartbeat CPU 0 instructions: 180000002 cycles: 165767627 heartbeat IPC: 0.766315 cumulative IPC: 0.867125 (Simulation time: 2 hr 32 min 21 sec) 
Heartbeat CPU 0 instructions: 190000000 cycles: 176776924 heartbeat IPC: 0.908323 cumulative IPC: 0.869944 (Simulation time: 2 hr 40 min 10 sec) 
Heartbeat CPU 0 instructions: 200000000 cycles: 186605730 heartbeat IPC: 1.01742 cumulative IPC: 0.878432 (Simulation time: 2 hr 46 min 38 sec) 
Heartbeat CPU 0 instructions: 210000001 cycles: 201931388 heartbeat IPC: 0.652501 cumulative IPC: 0.859825 (Simulation time: 2 hr 57 min 13 sec) 
Heartbeat CPU 0 instructions: 220000000 cycles: 214037807 heartbeat IPC: 0.826008 cumulative IPC: 0.857759 (Simulation time: 3 hr 4 min 2 sec) 
Heartbeat CPU 0 instructions: 230000002 cycles: 228789955 heartbeat IPC: 0.677868 cumulative IPC: 0.845297 (Simulation time: 3 hr 10 min 14 sec) 
Heartbeat CPU 0 instructions: 240000000 cycles: 242181595 heartbeat IPC: 0.746734 cumulative IPC: 0.839465 (Simulation time: 3 hr 15 min 58 sec) 
Heartbeat CPU 0 instructions: 250000001 cycles: 254550929 heartbeat IPC: 0.808451 cumulative IPC: 0.837858 (Simulation time: 3 hr 19 min 56 sec) 
Finished CPU 0 instructions: 200000000 cycles: 238703964 cumulative IPC: 0.837858 (Simulation time: 3 hr 19 min 56 sec) 

ChampSim completed all CPUs

Region of Interest Statistics

CPU 0 cumulative IPC: 0.837858 instructions: 200000000 cycles: 238703964
ITLB TOTAL     ACCESS:   31041521  HIT:   31041520  MISS:          1  HIT %:        100  MISS %: 3.22149e-06   MPKI: 5e-06
ITLB LOAD TRANSLATION ACCESS:   31041521  HIT:   31041520  MISS:          1  HIT %:        100  MISS %: 3.22149e-06   MPKI: 5e-06
ITLB PREFETCH  REQUESTED:          0  ISSUED:          0  USEFUL:          0  USELESS:          0
ITLB USEFUL LOAD PREFETCHES:          0 PREFETCH ISSUED TO LOWER LEVEL:          0  ACCURACY: -nan
ITLB TIMELY PREFETCHES:          0 LATE PREFETCHES: 0 DROPPED PREFETCHES: 0
ITLB PREFETCHES SAME FILL-ORIGIN LEVEL: 0 DIFFERENT FILL-ORIGIN LEVEL: 0
ITLB AVERAGE MISS LATENCY: 320 cycles
ITLB RQ	ACCESS:   35275609	FORWARD:          0	MERGED:    4234089	TO_CACHE:   31041520

DTLB TOTAL     ACCESS:   54647549  HIT:   54540641  MISS:     106908  HIT %:    99.8044  MISS %:   0.195632   MPKI: 0.53454
DTLB LOAD TRANSLATION ACCESS:   54647549  HIT:   54540641  MISS:     106908  HIT %:    99.8044  MISS %:   0.195632   MPKI: 0.53454
DTLB PREFETCH  REQUESTED:          0  ISSUED:          0  USEFUL:          0  USELESS:          0
DTLB USEFUL LOAD PREFETCHES:          0 PREFETCH ISSUED TO LOWER LEVEL:          0  ACCURACY: -nan
DTLB TIMELY PREFETCHES:          0 LATE PREFETCHES: 0 DROPPED PREFETCHES: 0
DTLB PREFETCHES SAME FILL-ORIGIN LEVEL: 0 DIFFERENT FILL-ORIGIN LEVEL: 0
DTLB AVERAGE MISS LATENCY: 130.534 cycles
DTLB RQ	ACCESS:   59008988	FORWARD:          0	MERGED:    4269018	TO_CACHE:   54739970

STLB TOTAL     ACCESS:   28127577  HIT:   28031360  MISS:      96217  HIT %:    99.6579  MISS %:   0.342074   MPKI: 0.481085
STLB LOAD TRANSLATION ACCESS:     106909  HIT:      39688  MISS:      67221  HIT %:    37.1232  MISS %:    62.8768   MPKI: 0.336105
STLB TRANSLATION FROM L1D PREFETCHER ACCESS:   28020668  HIT:   27991672  MISS:      28996  HIT %:    99.8965  MISS %:   0.103481   MPKI: 0.14498
STLB PREFETCH  REQUESTED:          0  ISSUED:          0  USEFUL:      28996  USELESS:          0
STLB USEFUL LOAD PREFETCHES:      28996 PREFETCH ISSUED TO LOWER LEVEL:          0  ACCURACY: inf
STLB TIMELY PREFETCHES:      28996 LATE PREFETCHES: 2439 DROPPED PREFETCHES: 836624
STLB PREFETCHES SAME FILL-ORIGIN LEVEL: 0 DIFFERENT FILL-ORIGIN LEVEL: 0
STLB AVERAGE MISS LATENCY: 153.817 cycles
STLB RQ	ACCESS:   86871257	FORWARD:          0	MERGED:   57857403	TO_CACHE:   29013854

STLB Hit, L1D data hit: 0
STLB Hit, L2C data hit: 0
STLB Hit, LLC data hit: 0
STLB Hit, LLC data miss: 0
STLB STLB hints to L2: 0
L1D TOTAL     ACCESS:  115605934  HIT:  110341596  MISS:    5264338  HIT %:    95.4463  MISS %:    4.55369   MPKI: 26.3217
L1D LOAD      ACCESS:   47970809  HIT:   47527318  MISS:     443491  HIT %:    99.0755  MISS %:   0.924502   MPKI: 2.21746
L1D RFO       ACCESS:    3146873  HIT:    1798335  MISS:    1348538  HIT %:    57.1467  MISS %:    42.8533   MPKI: 6.74269
L1D PREFETCH  ACCESS:   64488252  HIT:   61015943  MISS:    3472309  HIT %:    94.6156  MISS %:    5.38441   MPKI: 17.3615
L1D PREFETCH  REQUESTED:  247145839  ISSUED:  177549403  USEFUL:    2923638  USELESS:     548730
L1D USEFUL LOAD PREFETCHES:    2923638 PREFETCH ISSUED TO LOWER LEVEL:   20590569  ACCURACY: 14.1989
L1D TIMELY PREFETCHES:    2923638 LATE PREFETCHES: 36397 DROPPED PREFETCHES: 1834600
L1D PREFETCHES SAME FILL-ORIGIN LEVEL: 3508986 DIFFERENT FILL-ORIGIN LEVEL: 17081583
L1D AVERAGE MISS LATENCY: 180.529 cycles
L1D RQ	ACCESS:   73913361	FORWARD:          0	MERGED:   25623660	TO_CACHE:   48289701
L1D WQ	ACCESS:   10719287	FORWARD:          0	MERGED:          0	TO_CACHE:   10719287
L1D PQ	ACCESS:   90785055	FORWARD:          0	MERGED:    4020707	TO_CACHE:   86764348

L1D UNIQUE REGIONS ACCESSED: 0
L1D REGIONS CONFLICTS: 0
L1D Cross Page Prefetch Requests: 27390856
L1D Same Page Prefetch Requests: 83230501
L1D ROI Sum of L1D PQ occupancy: 1510032509
L1D PREFETCHES PUSHED FROM L2C: 0
L1I TOTAL     ACCESS:   35275581  HIT:   35275531  MISS:         50  HIT %:    99.9999  MISS %: 0.000141741   MPKI: 0.00025
L1I LOAD      ACCESS:   35275581  HIT:   35275531  MISS:         50  HIT %:    99.9999  MISS %: 0.000141741   MPKI: 0.00025
L1I PREFETCH  REQUESTED:          0  ISSUED:          0  USEFUL:          0  USELESS:          0
L1I USEFUL LOAD PREFETCHES:          0 PREFETCH ISSUED TO LOWER LEVEL:          0  ACCURACY: -nan
L1I TIMELY PREFETCHES:          0 LATE PREFETCHES: 0 DROPPED PREFETCHES: 0
L1I PREFETCHES SAME FILL-ORIGIN LEVEL: 0 DIFFERENT FILL-ORIGIN LEVEL: 0
L1I AVERAGE MISS LATENCY: 248.32 cycles
L1I RQ	ACCESS:   54200738	FORWARD:          0	MERGED:   18925129	TO_CACHE:   35275609

BTB TOTAL     ACCESS:   10637190  HIT:   10637169  MISS:         21  HIT %:    99.9998  MISS %: 0.000197421   MPKI: 0.000105
BTB BRANCH_DIRECT_JUMP	ACCESS:      26624  HIT:      26622  MISS:          2
BTB BRANCH_INDIRECT	ACCESS:          0  HIT:          0  MISS:          0
BTB BRANCH_CONDITIONAL	ACCESS:   10610566  HIT:   10610547  MISS:         19
BTB BRANCH_DIRECT_CALL	ACCESS:          0  HIT:          0  MISS:          0
BTB BRANCH_INDIRECT_CALL	ACCESS:          0  HIT:          0  MISS:          0
BTB BRANCH_RETURN	ACCESS:          0  HIT:          0  MISS:          0
BTB BRANCH_OTHER ACCESS:          0  HIT:          0  MISS:          0

L2C TOTAL     ACCESS:   21621459  HIT:   17042809  MISS:    4578650  HIT %:    78.8236  MISS %:    21.1764   MPKI: 22.8932
L2C LOAD      ACCESS:     407138  HIT:     253239  MISS:     153899  HIT %:    62.1998  MISS %:    37.8002   MPKI: 0.769495
L2C DATA LOAD MPKI: 0.769245
L2C INSTRUCTION LOAD MPKI: 0.00025
L2C RFO       ACCESS:    1348538  HIT:          0  MISS:    1348538  HIT %:          0  MISS %:        100   MPKI: 6.74269
L2C PREFETCH  ACCESS:   17578943  HIT:   14548948  MISS:    3029995  HIT %:    82.7635  MISS %:    17.2365   MPKI: 15.15
L2C DATA PREFETCH MPKI: 15.15
L2C INSTRUCTION PREFETCH MPKI: 0
L2C WRITEBACK ACCESS:    1350679  HIT:    1324499  MISS:      26180  HIT %:    98.0617  MISS %:    1.93828   MPKI: 0.1309
L2C LOAD TRANSLATION ACCESS:      67295  HIT:      55178  MISS:      12117  HIT %:    81.9942  MISS %:    18.0058   MPKI: 0.060585
L2C TRANSLATION FROM L1D PREFETCHER ACCESS:     868866  HIT:     860945  MISS:       7921  HIT %:    99.0884  MISS %:   0.911648   MPKI: 0.039605
L2C PREFETCH  REQUESTED:          0  ISSUED:          0  USEFUL:     239376  USELESS:    2801838
L2C USEFUL LOAD PREFETCHES:     239376 PREFETCH ISSUED TO LOWER LEVEL:    3100797  ACCURACY: 7.71982
L2C TIMELY PREFETCHES:     239376 LATE PREFETCHES: 70795 DROPPED PREFETCHES: 0
L2C PREFETCHES SAME FILL-ORIGIN LEVEL: 1358584 DIFFERENT FILL-ORIGIN LEVEL: 0
L2C AVERAGE MISS LATENCY: 266.736 cycles
L2C RQ	ACCESS:    2691849	FORWARD:          0	MERGED:          0	TO_CACHE:    2691843
L2C WQ	ACCESS:    1350679	FORWARD:          6	MERGED:          0	TO_CACHE:    1350679
L2C PQ	ACCESS:   20569541	FORWARD:          0	MERGED:       3441	TO_CACHE:   20566100

L2C Instructions Evicting Data 49
L2C Translations Evicting Data 19954
L2C Data Evicting Data 4512463
L2C Instructions Evicting Instructions 0
L2C Translations Evicting Instructions 0
L2C Data Evicting Instructions 50
L2C Instructions Evicting Translations 1
L2C Translations Evicting Translations 84
L2C Data Evicting Translations 19869
L2C Dense regions hint from L2: 0
PSCL5 TOTAL     ACCESS:     935253  HIT:     935253  MISS:          0  HIT %:        100  MISS %:          0   MPKI: 0
PSCL5 LOAD TRANSLATION ACCESS:      67194  HIT:      67194  MISS:          0  HIT %:        100  MISS %:          0   MPKI: 0
PSCL5 TRANSLATION FROM L1D PREFETCHER ACCESS:     868059  HIT:     868059  MISS:          0  HIT %:        100  MISS %:          0   MPKI: 0
PSCL5 PREFETCH  REQUESTED:          0  ISSUED:          0  USEFUL:          0  USELESS:          0
PSCL5 USEFUL LOAD PREFETCHES:          0 PREFETCH ISSUED TO LOWER LEVEL:          0  ACCURACY: -nan
PSCL5 TIMELY PREFETCHES:          0 LATE PREFETCHES: 0 DROPPED PREFETCHES: 0
PSCL5 PREFETCHES SAME FILL-ORIGIN LEVEL: 0 DIFFERENT FILL-ORIGIN LEVEL: 0

PSCL4 TOTAL     ACCESS:     935253  HIT:     935253  MISS:          0  HIT %:        100  MISS %:          0   MPKI: 0
PSCL4 LOAD TRANSLATION ACCESS:      67194  HIT:      67194  MISS:          0  HIT %:        100  MISS %:          0   MPKI: 0
PSCL4 TRANSLATION FROM L1D PREFETCHER ACCESS:     868059  HIT:     868059  MISS:          0  HIT %:        100  MISS %:          0   MPKI: 0
PSCL4 PREFETCH  REQUESTED:          0  ISSUED:          0  USEFUL:          0  USELESS:          0
PSCL4 USEFUL LOAD PREFETCHES:          0 PREFETCH ISSUED TO LOWER LEVEL:          0  ACCURACY: -nan
PSCL4 TIMELY PREFETCHES:          0 LATE PREFETCHES: 0 DROPPED PREFETCHES: 0
PSCL4 PREFETCHES SAME FILL-ORIGIN LEVEL: 0 DIFFERENT FILL-ORIGIN LEVEL: 0

PSCL3 TOTAL     ACCESS:     929568  HIT:     929561  MISS:          7  HIT %:    99.9992  MISS %: 0.000753038   MPKI: 3.5e-05
PSCL3 LOAD TRANSLATION ACCESS:      66767  HIT:      66760  MISS:          7  HIT %:    99.9895  MISS %:  0.0104842   MPKI: 3.5e-05
PSCL3 TRANSLATION FROM L1D PREFETCHER ACCESS:     862801  HIT:     862801  MISS:          0  HIT %:        100  MISS %:          0   MPKI: 0
PSCL3 PREFETCH  REQUESTED:          0  ISSUED:          0  USEFUL:          0  USELESS:          0
PSCL3 USEFUL LOAD PREFETCHES:          0 PREFETCH ISSUED TO LOWER LEVEL:          0  ACCURACY: -nan
PSCL3 TIMELY PREFETCHES:          0 LATE PREFETCHES: 0 DROPPED PREFETCHES: 0
PSCL3 PREFETCHES SAME FILL-ORIGIN LEVEL: 0 DIFFERENT FILL-ORIGIN LEVEL: 0

PSCL2 TOTAL     ACCESS:     933988  HIT:     933715  MISS:        273  HIT %:    99.9708  MISS %:  0.0292295   MPKI: 0.001365
PSCL2 LOAD TRANSLATION ACCESS:      67221  HIT:      66948  MISS:        273  HIT %:    99.5939  MISS %:   0.406123   MPKI: 0.001365
PSCL2 TRANSLATION FROM L1D PREFETCHER ACCESS:     866767  HIT:     866767  MISS:          0  HIT %:        100  MISS %:          0   MPKI: 0
PSCL2 PREFETCH  REQUESTED:          0  ISSUED:          0  USEFUL:          0  USELESS:          0
PSCL2 USEFUL LOAD PREFETCHES:          0 PREFETCH ISSUED TO LOWER LEVEL:          0  ACCURACY: -nan
PSCL2 TIMELY PREFETCHES:          0 LATE PREFETCHES: 0 DROPPED PREFETCHES: 0
PSCL2 PREFETCHES SAME FILL-ORIGIN LEVEL: 0 DIFFERENT FILL-ORIGIN LEVEL: 0

LLC TOTAL     ACCESS:    5897817  HIT:    1363382  MISS:    4534435  HIT %:    23.1167  MISS %:    76.8833   MPKI: 22.6722
LLC LOAD      ACCESS:      83104  HIT:       1874  MISS:      81230  HIT %:    2.25501  MISS %:     97.745   MPKI: 0.40615
LLC RFO       ACCESS:    1348539  HIT:          1  MISS:    1348538  HIT %: 7.41543e-05  MISS %:    99.9999   MPKI: 6.74269
LLC PREFETCH  ACCESS:    3100790  HIT:      36203  MISS:    3064587  HIT %:    1.16754  MISS %:    98.8325   MPKI: 15.3229
LLC WRITEBACK ACCESS:    1345346  HIT:    1325001  MISS:      20345  HIT %:    98.4877  MISS %:    1.51225   MPKI: 0.101725
LLC LOAD TRANSLATION ACCESS:      12117  HIT:        144  MISS:      11973  HIT %:    1.18841  MISS %:    98.8116   MPKI: 0.059865
LLC TRANSLATION FROM L1D PREFETCHER ACCESS:       7921  HIT:        159  MISS:       7762  HIT %:    2.00732  MISS %:    97.9927   MPKI: 0.03881
LLC PREFETCH  REQUESTED:          0  ISSUED:          0  USEFUL:       1580  USELESS:    3081472
LLC USEFUL LOAD PREFETCHES:       1580 PREFETCH ISSUED TO LOWER LEVEL:    3064593  ACCURACY: 0.0515566
LLC TIMELY PREFETCHES:       1580 LATE PREFETCHES: 0 DROPPED PREFETCHES: 0
LLC PREFETCHES SAME FILL-ORIGIN LEVEL: 0 DIFFERENT FILL-ORIGIN LEVEL: 0
LLC AVERAGE MISS LATENCY: 240.919 cycles
LLC RQ	ACCESS:    1451686	FORWARD:          0	MERGED:          0	TO_CACHE:    1451686
LLC WQ	ACCESS:    1345346	FORWARD:          0	MERGED:          0	TO_CACHE:    1345346
LLC PQ	ACCESS:    3100797	FORWARD:          0	MERGED:          0	TO_CACHE:    3100797

LLC Dense regions hint to LLC: 0

RAW hits: 17
Loads Generated: 73913377
Loads sent to L1D: 73913361
Stores Generated: 10719286
Stores sent to L1D: 10719287
Major fault: 0 Minor fault: 51871
Allocated PAGES: 51871

DRAM Statistics
 CHANNEL 0
 RQ ROW_BUFFER_HIT:     699940  ROW_BUFFER_MISS:    3814151
 DBUS_CONGESTED:       1418
 WQ ROW_BUFFER_HIT:     320886  ROW_BUFFER_MISS:    1017350  FULL:          0

 AVG_CONGESTED_CYCLE: 3
 All warmup complete: 2
Channel 0 Bank busy for read cycles: 0
Channel 0 Bank busy for write cycles: 0
Channel 0
Rank 0
0banks busy for read cycles: 759642
0banks busy for write cycles: 2800
1banks busy for read cycles: 38028898
1banks busy for write cycles: 843686
2banks busy for read cycles: 48379972
2banks busy for write cycles: 869986
3banks busy for read cycles: 36915089
3banks busy for write cycles: 861350
4banks busy for read cycles: 26721185
4banks busy for write cycles: 858465
5banks busy for read cycles: 14663924
5banks busy for write cycles: 899956
6banks busy for read cycles: 10772237
6banks busy for write cycles: 992867
7banks busy for read cycles: 7687538
7banks busy for write cycles: 2830141
8banks busy for read cycles: 9608380
8banks busy for write cycles: 37007849

CPU 0 Branch Prediction Accuracy: 99.998% MPKI: 0.001065 Average ROB Occupancy at Mispredict: 191.211
Branch types
NOT_BRANCH: 189359360 94.6797%
BRANCH_DIRECT_JUMP: 26624 0.013312%
BRANCH_INDIRECT: 0 0%
BRANCH_CONDITIONAL: 10613669 5.30683%
BRANCH_DIRECT_CALL: 0 0%
BRANCH_INDIRECT_CALL: 0 0%
BRANCH_RETURN: 0 0%
BRANCH_OTHER: 0 0%

DRAM PAGES: 1048576
Allocated PAGES: 51871
