
*** ChampSim Multicore Out-of-Order Simulator ***

Warmup Instructions: 50000000
Simulation Instructions: 200000000
Number of CPUs: 1
LLC sets: 2048
LLC ways: 16
Off-chip DRAM Size: 4096 MB Channels: 1 Width: 64-bit Data Rate: 6400 MT/s
argv[0]: ./ChampSim/Berti/bin/multiperspective_perceptron8kb-no-vberti-no-no-no-no-no-lru-lru-lru-srrip-drrip-lru-lru-lru-1core-no
argv[1]: -warmup_instructions
argv[2]: 50000000
argv[3]: -simulation_instructions
argv[4]: 200000000
argv[5]: -traces
argv[6]: traces/spec2k17_ten/654.roms_s-1390B.champsimtrace.xz
CPU 0 runs traces/spec2k17_ten/654.roms_s-1390B.champsimtrace.xz
.xz
CPU 0 Multiperspective perceptron branch predictor
BTB has LRU replacement policy
ITLB has LRU replacement policy
DTLB has LRU replacement policy
STLB has LRU replacement policy
L1I has LRU replacement policy
History Sets: 8
History Ways: 16
BERTI Size: 16
BERTI Stride Size: 16
L1D has LRU replacement policy
Initialize SRRIP state for L2C
Initialize DRRIP state for LLC
Heartbeat CPU 0 instructions: 10000001 cycles: 3755669 heartbeat IPC: 2.66264 cumulative IPC: 2.66264 (Simulation time: 0 hr 7 min 8 sec) 
Heartbeat CPU 0 instructions: 20000000 cycles: 7248232 heartbeat IPC: 2.86323 cumulative IPC: 2.75929 (Simulation time: 0 hr 18 min 6 sec) 
Heartbeat CPU 0 instructions: 30000003 cycles: 10664960 heartbeat IPC: 2.92678 cumulative IPC: 2.81295 (Simulation time: 0 hr 23 min 1 sec) 
Heartbeat CPU 0 instructions: 40000002 cycles: 14437144 heartbeat IPC: 2.65098 cumulative IPC: 2.77063 (Simulation time: 0 hr 31 min 32 sec) 
Heartbeat CPU 0 instructions: 50000000 cycles: 18783154 heartbeat IPC: 2.30096 cumulative IPC: 2.66196 (Simulation time: 0 hr 39 min 6 sec) 

Warmup complete CPU 0 instructions: 50000002 cycles: 18783155 (Simulation time: 0 hr 39 min 6 sec) 

Heartbeat CPU 0 instructions: 60000001 cycles: 31013280 heartbeat IPC: 0.817653 cumulative IPC: 0.817653 (Simulation time: 0 hr 44 min 30 sec) 
Heartbeat CPU 0 instructions: 70000003 cycles: 42687031 heartbeat IPC: 0.856623 cumulative IPC: 0.836684 (Simulation time: 0 hr 50 min 41 sec) 
Heartbeat CPU 0 instructions: 80000002 cycles: 54367227 heartbeat IPC: 0.85615 cumulative IPC: 0.843074 (Simulation time: 0 hr 58 min 57 sec) 
Heartbeat CPU 0 instructions: 90000000 cycles: 66055584 heartbeat IPC: 0.855552 cumulative IPC: 0.846159 (Simulation time: 1 hr 10 min 41 sec) 
Heartbeat CPU 0 instructions: 100000000 cycles: 79486935 heartbeat IPC: 0.744527 cumulative IPC: 0.823672 (Simulation time: 1 hr 18 min 55 sec) 
Heartbeat CPU 0 instructions: 110000000 cycles: 92489243 heartbeat IPC: 0.769094 cumulative IPC: 0.814044 (Simulation time: 1 hr 24 min 59 sec) 
Heartbeat CPU 0 instructions: 120000002 cycles: 104736115 heartbeat IPC: 0.816535 cumulative IPC: 0.814399 (Simulation time: 1 hr 32 min 39 sec) 
Heartbeat CPU 0 instructions: 130000000 cycles: 116950736 heartbeat IPC: 0.818691 cumulative IPC: 0.814933 (Simulation time: 1 hr 38 min 1 sec) 
Heartbeat CPU 0 instructions: 140000000 cycles: 130404379 heartbeat IPC: 0.743293 cumulative IPC: 0.806298 (Simulation time: 1 hr 47 min 40 sec) 
Heartbeat CPU 0 instructions: 150000001 cycles: 141945111 heartbeat IPC: 0.866496 cumulative IPC: 0.811939 (Simulation time: 1 hr 55 min 11 sec) 
Heartbeat CPU 0 instructions: 160000002 cycles: 150894177 heartbeat IPC: 1.11744 cumulative IPC: 0.832633 (Simulation time: 2 hr 5 min 24 sec) 
Heartbeat CPU 0 instructions: 170000000 cycles: 160562627 heartbeat IPC: 1.03429 cumulative IPC: 0.846385 (Simulation time: 2 hr 12 min 19 sec) 
Heartbeat CPU 0 instructions: 180000003 cycles: 170542283 heartbeat IPC: 1.00204 cumulative IPC: 0.856621 (Simulation time: 2 hr 21 min 8 sec) 
Heartbeat CPU 0 instructions: 190000002 cycles: 181234031 heartbeat IPC: 0.935301 cumulative IPC: 0.861799 (Simulation time: 2 hr 32 min 38 sec) 
Heartbeat CPU 0 instructions: 200000003 cycles: 196035269 heartbeat IPC: 0.675619 cumulative IPC: 0.846252 (Simulation time: 2 hr 40 min 58 sec) 
Heartbeat CPU 0 instructions: 210000000 cycles: 205116780 heartbeat IPC: 1.10114 cumulative IPC: 0.858675 (Simulation time: 2 hr 52 min 1 sec) 
Heartbeat CPU 0 instructions: 220000000 cycles: 217573166 heartbeat IPC: 0.802801 cumulative IPC: 0.855174 (Simulation time: 3 hr 2 min 57 sec) 
Heartbeat CPU 0 instructions: 230000002 cycles: 232580070 heartbeat IPC: 0.66636 cumulative IPC: 0.84192 (Simulation time: 3 hr 10 min 15 sec) 
Heartbeat CPU 0 instructions: 240000002 cycles: 243693196 heartbeat IPC: 0.899837 cumulative IPC: 0.844782 (Simulation time: 3 hr 17 min 1 sec) 
Heartbeat CPU 0 instructions: 250000003 cycles: 253137531 heartbeat IPC: 1.05884 cumulative IPC: 0.853408 (Simulation time: 3 hr 22 min 12 sec) 
Finished CPU 0 instructions: 200000001 cycles: 234354376 cumulative IPC: 0.853408 (Simulation time: 3 hr 22 min 12 sec) 

ChampSim completed all CPUs

Region of Interest Statistics

CPU 0 cumulative IPC: 0.853408 instructions: 200000001 cycles: 234354376
ITLB TOTAL     ACCESS:   29515722  HIT:   29515715  MISS:          7  HIT %:        100  MISS %: 2.37162e-05   MPKI: 3.5e-05
ITLB LOAD TRANSLATION ACCESS:   29515722  HIT:   29515715  MISS:          7  HIT %:        100  MISS %: 2.37162e-05   MPKI: 3.5e-05
ITLB PREFETCH  REQUESTED:          0  ISSUED:          0  USEFUL:          0  USELESS:          0
ITLB USEFUL LOAD PREFETCHES:          0 PREFETCH ISSUED TO LOWER LEVEL:          0  ACCURACY: -nan
ITLB TIMELY PREFETCHES:          0 LATE PREFETCHES: 0 DROPPED PREFETCHES: 0
ITLB PREFETCHES SAME FILL-ORIGIN LEVEL: 0 DIFFERENT FILL-ORIGIN LEVEL: 0
ITLB AVERAGE MISS LATENCY: 559.143 cycles
ITLB RQ	ACCESS:   35499330	FORWARD:          0	MERGED:    5983606	TO_CACHE:   29515724

DTLB TOTAL     ACCESS:   53770648  HIT:   53598065  MISS:     172583  HIT %:     99.679  MISS %:   0.320961   MPKI: 0.862915
DTLB LOAD TRANSLATION ACCESS:   53770648  HIT:   53598065  MISS:     172583  HIT %:     99.679  MISS %:   0.320961   MPKI: 0.862915
DTLB PREFETCH  REQUESTED:          0  ISSUED:          0  USEFUL:          0  USELESS:          0
DTLB USEFUL LOAD PREFETCHES:          0 PREFETCH ISSUED TO LOWER LEVEL:          0  ACCURACY: -nan
DTLB TIMELY PREFETCHES:          0 LATE PREFETCHES: 0 DROPPED PREFETCHES: 0
DTLB PREFETCHES SAME FILL-ORIGIN LEVEL: 0 DIFFERENT FILL-ORIGIN LEVEL: 0
DTLB AVERAGE MISS LATENCY: 81.1982 cycles
DTLB RQ	ACCESS:   60726526	FORWARD:          0	MERGED:    6872495	TO_CACHE:   53854031

STLB TOTAL     ACCESS:   23069869  HIT:   22953005  MISS:     116864  HIT %:    99.4934  MISS %:   0.506566   MPKI: 0.58432
STLB LOAD TRANSLATION ACCESS:     172590  HIT:     117273  MISS:      55317  HIT %:    67.9489  MISS %:    32.0511   MPKI: 0.276585
STLB TRANSLATION FROM L1D PREFETCHER ACCESS:   22897279  HIT:   22835732  MISS:      61547  HIT %:    99.7312  MISS %:   0.268796   MPKI: 0.307735
STLB PREFETCH  REQUESTED:          0  ISSUED:          0  USEFUL:      61319  USELESS:        227
STLB USEFUL LOAD PREFETCHES:      61319 PREFETCH ISSUED TO LOWER LEVEL:          0  ACCURACY: inf
STLB TIMELY PREFETCHES:      61319 LATE PREFETCHES: 1966 DROPPED PREFETCHES: 475547
STLB PREFETCHES SAME FILL-ORIGIN LEVEL: 0 DIFFERENT FILL-ORIGIN LEVEL: 0
STLB AVERAGE MISS LATENCY: 147.981 cycles
STLB RQ	ACCESS:   94597102	FORWARD:          0	MERGED:   71021282	TO_CACHE:   23575820

STLB Hit, L1D data hit: 0
STLB Hit, L2C data hit: 0
STLB Hit, LLC data hit: 0
STLB Hit, LLC data miss: 0
STLB STLB hints to L2: 0
L1D TOTAL     ACCESS:  129818941  HIT:  123503314  MISS:    6315627  HIT %:     95.135  MISS %:    4.86495   MPKI: 31.5781
L1D LOAD      ACCESS:   48101991  HIT:   47428707  MISS:     673284  HIT %:    98.6003  MISS %:     1.3997   MPKI: 3.36642
L1D RFO       ACCESS:    6644351  HIT:    5512019  MISS:    1132332  HIT %:     82.958  MISS %:     17.042   MPKI: 5.66166
L1D PREFETCH  ACCESS:   75072599  HIT:   70562588  MISS:    4510011  HIT %:    93.9925  MISS %:    6.00753   MPKI: 22.5501
L1D PREFETCH  REQUESTED:  278683388  ISSUED:  197398766  USEFUL:    3934771  USELESS:     575180
L1D USEFUL LOAD PREFETCHES:    3934771 PREFETCH ISSUED TO LOWER LEVEL:   17734083  ACCURACY: 22.1876
L1D TIMELY PREFETCHES:    3934771 LATE PREFETCHES: 86623 DROPPED PREFETCHES: 963528
L1D PREFETCHES SAME FILL-ORIGIN LEVEL: 4598848 DIFFERENT FILL-ORIGIN LEVEL: 13135235
L1D AVERAGE MISS LATENCY: 191.758 cycles
L1D RQ	ACCESS:   76592738	FORWARD:          0	MERGED:   28059634	TO_CACHE:   48433576
L1D WQ	ACCESS:   12318509	FORWARD:      99529	MERGED:      25559	TO_CACHE:   12292950
L1D PQ	ACCESS:  102974254	FORWARD:          0	MERGED:    8549741	TO_CACHE:   94424512

L1D UNIQUE REGIONS ACCESSED: 0
L1D REGIONS CONFLICTS: 0
L1D Cross Page Prefetch Requests: 13821234
L1D Same Page Prefetch Requests: 128300279
L1D ROI Sum of L1D PQ occupancy: 1615790831
L1D PREFETCHES PUSHED FROM L2C: 0
L1I TOTAL     ACCESS:   35498970  HIT:   35498200  MISS:        770  HIT %:    99.9978  MISS %: 0.00216908   MPKI: 0.00385
L1I LOAD      ACCESS:   35498970  HIT:   35498200  MISS:        770  HIT %:    99.9978  MISS %: 0.00216908   MPKI: 0.00385
L1I PREFETCH  REQUESTED:          0  ISSUED:          0  USEFUL:          0  USELESS:          0
L1I USEFUL LOAD PREFETCHES:          0 PREFETCH ISSUED TO LOWER LEVEL:          0  ACCURACY: -nan
L1I TIMELY PREFETCHES:          0 LATE PREFETCHES: 0 DROPPED PREFETCHES: 0
L1I PREFETCHES SAME FILL-ORIGIN LEVEL: 0 DIFFERENT FILL-ORIGIN LEVEL: 0
L1I AVERAGE MISS LATENCY: 244.792 cycles
L1I RQ	ACCESS:   49741751	FORWARD:          0	MERGED:   14242421	TO_CACHE:   35499330

BTB TOTAL     ACCESS:    7433883  HIT:    7433574  MISS:        309  HIT %:    99.9958  MISS %: 0.00415664   MPKI: 0.001545
BTB BRANCH_DIRECT_JUMP	ACCESS:       1193  HIT:       1166  MISS:         27
BTB BRANCH_INDIRECT	ACCESS:          0  HIT:          0  MISS:          0
BTB BRANCH_CONDITIONAL	ACCESS:    7432416  HIT:    7432259  MISS:        157
BTB BRANCH_DIRECT_CALL	ACCESS:        137  HIT:         76  MISS:         61
BTB BRANCH_INDIRECT_CALL	ACCESS:          0  HIT:          0  MISS:          0
BTB BRANCH_RETURN	ACCESS:        137  HIT:         73  MISS:         64
BTB BRANCH_OTHER ACCESS:          0  HIT:          0  MISS:          0

L2C TOTAL     ACCESS:   17736870  HIT:   12178373  MISS:    5558497  HIT %:    68.6613  MISS %:    31.3387   MPKI: 27.7925
L2C LOAD      ACCESS:     587418  HIT:     361294  MISS:     226124  HIT %:    61.5054  MISS %:    38.4946   MPKI: 1.13062
L2C DATA LOAD MPKI: 1.12677
L2C INSTRUCTION LOAD MPKI: 0.00385
L2C RFO       ACCESS:    1132279  HIT:        213  MISS:    1132066  HIT %:  0.0188116  MISS %:    99.9812   MPKI: 5.66033
L2C PREFETCH  ACCESS:   13948126  HIT:    9789675  MISS:    4158451  HIT %:    70.1863  MISS %:    29.8137   MPKI: 20.7923
L2C DATA PREFETCH MPKI: 20.7923
L2C INSTRUCTION PREFETCH MPKI: 0
L2C WRITEBACK ACCESS:    1472645  HIT:    1455532  MISS:      17113  HIT %:    98.8379  MISS %:    1.16206   MPKI: 0.085565
L2C LOAD TRANSLATION ACCESS:      55079  HIT:      44131  MISS:      10948  HIT %:    80.1231  MISS %:    19.8769   MPKI: 0.05474
L2C TRANSLATION FROM L1D PREFETCHER ACCESS:     541323  HIT:     527528  MISS:      13795  HIT %:    97.4516  MISS %:    2.54839   MPKI: 0.068975
L2C PREFETCH  REQUESTED:          0  ISSUED:          0  USEFUL:     311898  USELESS:    3858348
L2C USEFUL LOAD PREFETCHES:     311898 PREFETCH ISSUED TO LOWER LEVEL:    4244003  ACCURACY: 7.34915
L2C TIMELY PREFETCHES:     311898 LATE PREFETCHES: 85547 DROPPED PREFETCHES: 0
L2C PREFETCHES SAME FILL-ORIGIN LEVEL: 2084181 DIFFERENT FILL-ORIGIN LEVEL: 0
L2C AVERAGE MISS LATENCY: 311.304 cycles
L2C RQ	ACCESS:    2316116	FORWARD:          0	MERGED:          0	TO_CACHE:    2316101
L2C WQ	ACCESS:    1472646	FORWARD:         15	MERGED:          0	TO_CACHE:    1472646
L2C PQ	ACCESS:   17626176	FORWARD:          0	MERGED:      13139	TO_CACHE:   17613037

L2C Instructions Evicting Data 768
L2C Translations Evicting Data 24641
L2C Data Evicting Data 5490559
L2C Instructions Evicting Instructions 2
L2C Translations Evicting Instructions 9
L2C Data Evicting Instructions 756
L2C Instructions Evicting Translations 0
L2C Translations Evicting Translations 93
L2C Data Evicting Translations 24556
L2C Dense regions hint from L2: 0
PSCL5 TOTAL     ACCESS:     593620  HIT:     593620  MISS:          0  HIT %:        100  MISS %:          0   MPKI: 0
PSCL5 LOAD TRANSLATION ACCESS:      54560  HIT:      54560  MISS:          0  HIT %:        100  MISS %:          0   MPKI: 0
PSCL5 TRANSLATION FROM L1D PREFETCHER ACCESS:     539060  HIT:     539060  MISS:          0  HIT %:        100  MISS %:          0   MPKI: 0
PSCL5 PREFETCH  REQUESTED:          0  ISSUED:          0  USEFUL:          0  USELESS:          0
PSCL5 USEFUL LOAD PREFETCHES:          0 PREFETCH ISSUED TO LOWER LEVEL:          0  ACCURACY: -nan
PSCL5 TIMELY PREFETCHES:          0 LATE PREFETCHES: 0 DROPPED PREFETCHES: 0
PSCL5 PREFETCHES SAME FILL-ORIGIN LEVEL: 0 DIFFERENT FILL-ORIGIN LEVEL: 0

PSCL4 TOTAL     ACCESS:     593620  HIT:     593620  MISS:          0  HIT %:        100  MISS %:          0   MPKI: 0
PSCL4 LOAD TRANSLATION ACCESS:      54560  HIT:      54560  MISS:          0  HIT %:        100  MISS %:          0   MPKI: 0
PSCL4 TRANSLATION FROM L1D PREFETCHER ACCESS:     539060  HIT:     539060  MISS:          0  HIT %:        100  MISS %:          0   MPKI: 0
PSCL4 PREFETCH  REQUESTED:          0  ISSUED:          0  USEFUL:          0  USELESS:          0
PSCL4 USEFUL LOAD PREFETCHES:          0 PREFETCH ISSUED TO LOWER LEVEL:          0  ACCURACY: -nan
PSCL4 TIMELY PREFETCHES:          0 LATE PREFETCHES: 0 DROPPED PREFETCHES: 0
PSCL4 PREFETCHES SAME FILL-ORIGIN LEVEL: 0 DIFFERENT FILL-ORIGIN LEVEL: 0

PSCL3 TOTAL     ACCESS:     591216  HIT:     591206  MISS:         10  HIT %:    99.9983  MISS %: 0.00169143   MPKI: 5e-05
PSCL3 LOAD TRANSLATION ACCESS:      54297  HIT:      54287  MISS:         10  HIT %:    99.9816  MISS %:  0.0184172   MPKI: 5e-05
PSCL3 TRANSLATION FROM L1D PREFETCHER ACCESS:     536919  HIT:     536919  MISS:          0  HIT %:        100  MISS %:          0   MPKI: 0
PSCL3 PREFETCH  REQUESTED:          0  ISSUED:          0  USEFUL:          0  USELESS:          0
PSCL3 USEFUL LOAD PREFETCHES:          0 PREFETCH ISSUED TO LOWER LEVEL:          0  ACCURACY: -nan
PSCL3 TIMELY PREFETCHES:          0 LATE PREFETCHES: 0 DROPPED PREFETCHES: 0
PSCL3 PREFETCHES SAME FILL-ORIGIN LEVEL: 0 DIFFERENT FILL-ORIGIN LEVEL: 0

PSCL2 TOTAL     ACCESS:     590500  HIT:     589756  MISS:        744  HIT %:     99.874  MISS %:   0.125995   MPKI: 0.00372
PSCL2 LOAD TRANSLATION ACCESS:      54722  HIT:      53978  MISS:        744  HIT %:    98.6404  MISS %:     1.3596   MPKI: 0.00372
PSCL2 TRANSLATION FROM L1D PREFETCHER ACCESS:     535778  HIT:     535778  MISS:          0  HIT %:        100  MISS %:          0   MPKI: 0
PSCL2 PREFETCH  REQUESTED:          0  ISSUED:          0  USEFUL:          0  USELESS:          0
PSCL2 USEFUL LOAD PREFETCHES:          0 PREFETCH ISSUED TO LOWER LEVEL:          0  ACCURACY: -nan
PSCL2 TIMELY PREFETCHES:          0 LATE PREFETCHES: 0 DROPPED PREFETCHES: 0
PSCL2 PREFETCHES SAME FILL-ORIGIN LEVEL: 0 DIFFERENT FILL-ORIGIN LEVEL: 0

LLC TOTAL     ACCESS:    7008569  HIT:     136043  MISS:    6872526  HIT %:     1.9411  MISS %:    98.0589   MPKI: 34.3626
LLC LOAD      ACCESS:     140626  HIT:       6071  MISS:     134555  HIT %:    4.31712  MISS %:    95.6829   MPKI: 0.672775
LLC RFO       ACCESS:    1132017  HIT:       8420  MISS:    1123597  HIT %:   0.743805  MISS %:    99.2562   MPKI: 5.61798
LLC PREFETCH  ACCESS:    4243999  HIT:      44754  MISS:    4199245  HIT %:    1.05452  MISS %:    98.9455   MPKI: 20.9962
LLC WRITEBACK ACCESS:    1467184  HIT:      76686  MISS:    1390498  HIT %:    5.22675  MISS %:    94.7733   MPKI: 6.95249
LLC LOAD TRANSLATION ACCESS:      10948  HIT:         48  MISS:      10900  HIT %:   0.438436  MISS %:    99.5616   MPKI: 0.0545
LLC TRANSLATION FROM L1D PREFETCHER ACCESS:      13795  HIT:         64  MISS:      13731  HIT %:   0.463936  MISS %:    99.5361   MPKI: 0.068655
LLC PREFETCH  REQUESTED:          0  ISSUED:          0  USEFUL:        632  USELESS:    4211047
LLC USEFUL LOAD PREFETCHES:        632 PREFETCH ISSUED TO LOWER LEVEL:    4199249  ACCURACY: 0.0150503
LLC TIMELY PREFETCHES:        632 LATE PREFETCHES: 0 DROPPED PREFETCHES: 0
LLC PREFETCHES SAME FILL-ORIGIN LEVEL: 0 DIFFERENT FILL-ORIGIN LEVEL: 0
LLC AVERAGE MISS LATENCY: 229.454 cycles
LLC RQ	ACCESS:    1297388	FORWARD:          0	MERGED:          0	TO_CACHE:    1297388
LLC WQ	ACCESS:    1467184	FORWARD:          0	MERGED:          0	TO_CACHE:    1467184
LLC PQ	ACCESS:    4244003	FORWARD:          0	MERGED:          0	TO_CACHE:    4244003

LLC Dense regions hint to LLC: 0

RAW hits: 1810367
Loads Generated: 78403118
Loads sent to L1D: 76592738
Stores Generated: 12318966
Stores sent to L1D: 12318954
Major fault: 0 Minor fault: 55185
Allocated PAGES: 55185

DRAM Statistics
 CHANNEL 0
 RQ ROW_BUFFER_HIT:    1028877  ROW_BUFFER_MISS:    4452945
 DBUS_CONGESTED:        173
 WQ ROW_BUFFER_HIT:     198165  ROW_BUFFER_MISS:    1261661  FULL:        190

 AVG_CONGESTED_CYCLE: 5
 All warmup complete: 2
Channel 0 Bank busy for read cycles: 0
Channel 0 Bank busy for write cycles: 0
Channel 0
Rank 0
0banks busy for read cycles: 6868722
0banks busy for write cycles: 13550
1banks busy for read cycles: 23885059
1banks busy for write cycles: 2140365
2banks busy for read cycles: 32226933
2banks busy for write cycles: 670250
3banks busy for read cycles: 30300193
3banks busy for write cycles: 376399
4banks busy for read cycles: 27862730
4banks busy for write cycles: 321229
5banks busy for read cycles: 21999115
5banks busy for write cycles: 311787
6banks busy for read cycles: 17638714
6banks busy for write cycles: 386565
7banks busy for read cycles: 14727409
7banks busy for write cycles: 2949240
8banks busy for read cycles: 17652101
8banks busy for write cycles: 34024016

CPU 0 Branch Prediction Accuracy: 99.9866% MPKI: 0.004995 Average ROB Occupancy at Mispredict: 117.466
Branch types
NOT_BRANCH: 192541516 96.2708%
BRANCH_DIRECT_JUMP: 1193 0.0005965%
BRANCH_INDIRECT: 0 0%
BRANCH_CONDITIONAL: 7457362 3.72868%
BRANCH_DIRECT_CALL: 137 6.85e-05%
BRANCH_INDIRECT_CALL: 0 0%
BRANCH_RETURN: 137 6.85e-05%
BRANCH_OTHER: 0 0%

DRAM PAGES: 1048576
Allocated PAGES: 55185
