
*** ChampSim Multicore Out-of-Order Simulator ***

Warmup Instructions: 50000000
Simulation Instructions: 200000000
Number of CPUs: 1
LLC sets: 2048
LLC ways: 16
Off-chip DRAM Size: 4096 MB Channels: 1 Width: 64-bit Data Rate: 6400 MT/s
argv[0]: ./ChampSim/Berti/bin/multiperspective_perceptron8kb-no-vberti-no-no-no-no-no-lru-lru-lru-srrip-drrip-lru-lru-lru-1core-no
argv[1]: -warmup_instructions
argv[2]: 50000000
argv[3]: -simulation_instructions
argv[4]: 200000000
argv[5]: -traces
argv[6]: traces/spec2k17_ten/654.roms_s-293B.champsimtrace.xz
CPU 0 runs traces/spec2k17_ten/654.roms_s-293B.champsimtrace.xz
.xz
CPU 0 Multiperspective perceptron branch predictor
BTB has LRU replacement policy
ITLB has LRU replacement policy
DTLB has LRU replacement policy
STLB has LRU replacement policy
L1I has LRU replacement policy
History Sets: 8
History Ways: 16
BERTI Size: 16
BERTI Stride Size: 16
L1D has LRU replacement policy
Initialize SRRIP state for L2C
Initialize DRRIP state for LLC
Heartbeat CPU 0 instructions: 10000001 cycles: 3119076 heartbeat IPC: 3.20608 cumulative IPC: 3.20608 (Simulation time: 0 hr 11 min 42 sec) 
Heartbeat CPU 0 instructions: 20000003 cycles: 6304111 heartbeat IPC: 3.13968 cumulative IPC: 3.17253 (Simulation time: 0 hr 20 min 5 sec) 
Heartbeat CPU 0 instructions: 30000000 cycles: 9423435 heartbeat IPC: 3.20582 cumulative IPC: 3.18355 (Simulation time: 0 hr 27 min 19 sec) 
Heartbeat CPU 0 instructions: 40000002 cycles: 12608498 heartbeat IPC: 3.13966 cumulative IPC: 3.17246 (Simulation time: 0 hr 32 min 9 sec) 
Heartbeat CPU 0 instructions: 50000003 cycles: 15727553 heartbeat IPC: 3.2061 cumulative IPC: 3.17913 (Simulation time: 0 hr 37 min 23 sec) 

Warmup complete CPU 0 instructions: 50000003 cycles: 15727553 (Simulation time: 0 hr 37 min 23 sec) 

Heartbeat CPU 0 instructions: 60000002 cycles: 25527655 heartbeat IPC: 1.0204 cumulative IPC: 1.0204 (Simulation time: 0 hr 45 min 19 sec) 
Heartbeat CPU 0 instructions: 70000003 cycles: 35016472 heartbeat IPC: 1.05387 cumulative IPC: 1.03686 (Simulation time: 0 hr 52 min 13 sec) 
Heartbeat CPU 0 instructions: 80000002 cycles: 44647449 heartbeat IPC: 1.03832 cumulative IPC: 1.03735 (Simulation time: 1 hr 0 min 20 sec) 
Heartbeat CPU 0 instructions: 90000000 cycles: 54302671 heartbeat IPC: 1.03571 cumulative IPC: 1.03694 (Simulation time: 1 hr 8 min 5 sec) 
Heartbeat CPU 0 instructions: 100000003 cycles: 63891867 heartbeat IPC: 1.04284 cumulative IPC: 1.03811 (Simulation time: 1 hr 16 min 16 sec) 
Heartbeat CPU 0 instructions: 110000000 cycles: 73581469 heartbeat IPC: 1.03203 cumulative IPC: 1.03709 (Simulation time: 1 hr 21 min 56 sec) 
Heartbeat CPU 0 instructions: 120000000 cycles: 83094943 heartbeat IPC: 1.05114 cumulative IPC: 1.03908 (Simulation time: 1 hr 30 min 4 sec) 
Heartbeat CPU 0 instructions: 130000000 cycles: 93028226 heartbeat IPC: 1.00672 cumulative IPC: 1.03492 (Simulation time: 1 hr 37 min 10 sec) 
Heartbeat CPU 0 instructions: 140000003 cycles: 102860097 heartbeat IPC: 1.0171 cumulative IPC: 1.03291 (Simulation time: 1 hr 43 min 35 sec) 
Heartbeat CPU 0 instructions: 150000003 cycles: 112663844 heartbeat IPC: 1.02002 cumulative IPC: 1.03161 (Simulation time: 1 hr 48 min 38 sec) 
Heartbeat CPU 0 instructions: 160000003 cycles: 122233263 heartbeat IPC: 1.045 cumulative IPC: 1.03281 (Simulation time: 1 hr 55 min 39 sec) 
Heartbeat CPU 0 instructions: 170000002 cycles: 131789329 heartbeat IPC: 1.04646 cumulative IPC: 1.03393 (Simulation time: 2 hr 3 min 54 sec) 
Heartbeat CPU 0 instructions: 180000001 cycles: 141359671 heartbeat IPC: 1.04489 cumulative IPC: 1.03477 (Simulation time: 2 hr 11 min 21 sec) 
Heartbeat CPU 0 instructions: 190000002 cycles: 150926684 heartbeat IPC: 1.04526 cumulative IPC: 1.03551 (Simulation time: 2 hr 18 min 38 sec) 
Heartbeat CPU 0 instructions: 200000000 cycles: 160492208 heartbeat IPC: 1.04542 cumulative IPC: 1.03616 (Simulation time: 2 hr 27 min 27 sec) 
Heartbeat CPU 0 instructions: 210000000 cycles: 170049915 heartbeat IPC: 1.04628 cumulative IPC: 1.03679 (Simulation time: 2 hr 35 min 33 sec) 
Heartbeat CPU 0 instructions: 220000000 cycles: 179613794 heartbeat IPC: 1.0456 cumulative IPC: 1.0373 (Simulation time: 2 hr 44 min 7 sec) 
Heartbeat CPU 0 instructions: 230000000 cycles: 189173681 heartbeat IPC: 1.04604 cumulative IPC: 1.03779 (Simulation time: 2 hr 52 min 1 sec) 
Heartbeat CPU 0 instructions: 240000001 cycles: 198728151 heartbeat IPC: 1.04663 cumulative IPC: 1.03825 (Simulation time: 2 hr 59 min 43 sec) 
Heartbeat CPU 0 instructions: 250000001 cycles: 208283311 heartbeat IPC: 1.04655 cumulative IPC: 1.03866 (Simulation time: 3 hr 7 min 2 sec) 
Finished CPU 0 instructions: 200000002 cycles: 192555759 cumulative IPC: 1.03866 (Simulation time: 3 hr 7 min 2 sec) 

ChampSim completed all CPUs

Region of Interest Statistics

CPU 0 cumulative IPC: 1.03866 instructions: 200000002 cycles: 192555759
ITLB TOTAL     ACCESS:   27299737  HIT:   27299721  MISS:         16  HIT %:    99.9999  MISS %: 5.86086e-05   MPKI: 8e-05
ITLB LOAD TRANSLATION ACCESS:   27299737  HIT:   27299721  MISS:         16  HIT %:    99.9999  MISS %: 5.86086e-05   MPKI: 8e-05
ITLB PREFETCH  REQUESTED:          0  ISSUED:          0  USEFUL:          0  USELESS:          0
ITLB USEFUL LOAD PREFETCHES:          0 PREFETCH ISSUED TO LOWER LEVEL:          0  ACCURACY: -nan
ITLB TIMELY PREFETCHES:          0 LATE PREFETCHES: 0 DROPPED PREFETCHES: 0
ITLB PREFETCHES SAME FILL-ORIGIN LEVEL: 0 DIFFERENT FILL-ORIGIN LEVEL: 0
ITLB AVERAGE MISS LATENCY: 240.125 cycles
ITLB RQ	ACCESS:   34375280	FORWARD:          0	MERGED:    7075541	TO_CACHE:   27299739

DTLB TOTAL     ACCESS:   53901659  HIT:   53822517  MISS:      79142  HIT %:    99.8532  MISS %:   0.146827   MPKI: 0.39571
DTLB LOAD TRANSLATION ACCESS:   53901659  HIT:   53822517  MISS:      79142  HIT %:    99.8532  MISS %:   0.146827   MPKI: 0.39571
DTLB PREFETCH  REQUESTED:          0  ISSUED:          0  USEFUL:          0  USELESS:          0
DTLB USEFUL LOAD PREFETCHES:          0 PREFETCH ISSUED TO LOWER LEVEL:          0  ACCURACY: -nan
DTLB TIMELY PREFETCHES:          0 LATE PREFETCHES: 0 DROPPED PREFETCHES: 0
DTLB PREFETCHES SAME FILL-ORIGIN LEVEL: 0 DIFFERENT FILL-ORIGIN LEVEL: 0
DTLB AVERAGE MISS LATENCY: 286.844 cycles
DTLB RQ	ACCESS:   59825258	FORWARD:          0	MERGED:    5874436	TO_CACHE:   53950822

STLB TOTAL     ACCESS:   16699953  HIT:   16652111  MISS:      47842  HIT %:    99.7135  MISS %:    0.28648   MPKI: 0.23921
STLB LOAD TRANSLATION ACCESS:      79158  HIT:      31323  MISS:      47835  HIT %:    39.5702  MISS %:    60.4298   MPKI: 0.239175
STLB TRANSLATION FROM L1D PREFETCHER ACCESS:   16620795  HIT:   16620788  MISS:          7  HIT %:        100  MISS %: 4.21159e-05   MPKI: 3.5e-05
STLB PREFETCH  REQUESTED:          0  ISSUED:          0  USEFUL:          7  USELESS:          0
STLB USEFUL LOAD PREFETCHES:          7 PREFETCH ISSUED TO LOWER LEVEL:          0  ACCURACY: inf
STLB TIMELY PREFETCHES:          7 LATE PREFETCHES: 1892 DROPPED PREFETCHES: 662151
STLB PREFETCHES SAME FILL-ORIGIN LEVEL: 0 DIFFERENT FILL-ORIGIN LEVEL: 0
STLB AVERAGE MISS LATENCY: 448.196 cycles
STLB RQ	ACCESS:   82236434	FORWARD:          0	MERGED:   64862643	TO_CACHE:   17373791

STLB Hit, L1D data hit: 0
STLB Hit, L2C data hit: 0
STLB Hit, LLC data hit: 0
STLB Hit, LLC data miss: 0
STLB STLB hints to L2: 0
L1D TOTAL     ACCESS:  132336604  HIT:  129586435  MISS:    2750169  HIT %:    97.9218  MISS %:    2.07816   MPKI: 13.7508
L1D LOAD      ACCESS:   48359393  HIT:   48233621  MISS:     125772  HIT %:    99.7399  MISS %:   0.260078   MPKI: 0.62886
L1D RFO       ACCESS:   10733179  HIT:   10358176  MISS:     375003  HIT %:    96.5061  MISS %:    3.49387   MPKI: 1.87501
L1D PREFETCH  ACCESS:   73244032  HIT:   70994638  MISS:    2249394  HIT %:    96.9289  MISS %:     3.0711   MPKI: 11.247
L1D PREFETCH  REQUESTED:  227811549  ISSUED:  165642832  USEFUL:    2057138  USELESS:     192266
L1D USEFUL LOAD PREFETCHES:    2057138 PREFETCH ISSUED TO LOWER LEVEL:    8160854  ACCURACY: 25.2074
L1D TIMELY PREFETCHES:    2057138 LATE PREFETCHES: 12142 DROPPED PREFETCHES: 2079128
L1D PREFETCHES SAME FILL-ORIGIN LEVEL: 2261538 DIFFERENT FILL-ORIGIN LEVEL: 5899316
L1D AVERAGE MISS LATENCY: 97.6176 cycles
L1D RQ	ACCESS:   72801876	FORWARD:          0	MERGED:   24158747	TO_CACHE:   48416823
L1D WQ	ACCESS:   11408461	FORWARD:     226306	MERGED:         26	TO_CACHE:   11408435
L1D PQ	ACCESS:   83485556	FORWARD:          0	MERGED:    1328280	TO_CACHE:   82157276

L1D UNIQUE REGIONS ACCESSED: 0
L1D REGIONS CONFLICTS: 0
L1D Cross Page Prefetch Requests: 5503210
L1D Same Page Prefetch Requests: 88894797
L1D ROI Sum of L1D PQ occupancy: 1372449862
L1D PREFETCHES PUSHED FROM L2C: 0
L1I TOTAL     ACCESS:   34375219  HIT:   34375046  MISS:        173  HIT %:    99.9995  MISS %: 0.00050327   MPKI: 0.000865
L1I LOAD      ACCESS:   34375219  HIT:   34375046  MISS:        173  HIT %:    99.9995  MISS %: 0.00050327   MPKI: 0.000865
L1I PREFETCH  REQUESTED:          0  ISSUED:          0  USEFUL:          0  USELESS:          0
L1I USEFUL LOAD PREFETCHES:          0 PREFETCH ISSUED TO LOWER LEVEL:          0  ACCURACY: -nan
L1I TIMELY PREFETCHES:          0 LATE PREFETCHES: 0 DROPPED PREFETCHES: 0
L1I PREFETCHES SAME FILL-ORIGIN LEVEL: 0 DIFFERENT FILL-ORIGIN LEVEL: 0
L1I AVERAGE MISS LATENCY: 202.763 cycles
L1I RQ	ACCESS:   50544888	FORWARD:          0	MERGED:   16169608	TO_CACHE:   34375280

BTB TOTAL     ACCESS:    7097427  HIT:    7097295  MISS:        132  HIT %:    99.9981  MISS %: 0.00185983   MPKI: 0.00066
BTB BRANCH_DIRECT_JUMP	ACCESS:        147  HIT:        134  MISS:         13
BTB BRANCH_INDIRECT	ACCESS:          0  HIT:          0  MISS:          0
BTB BRANCH_CONDITIONAL	ACCESS:    7097022  HIT:    7096963  MISS:         59
BTB BRANCH_DIRECT_CALL	ACCESS:        129  HIT:         99  MISS:         30
BTB BRANCH_INDIRECT_CALL	ACCESS:          0  HIT:          0  MISS:          0
BTB BRANCH_RETURN	ACCESS:        129  HIT:         99  MISS:         30
BTB BRANCH_OTHER ACCESS:          0  HIT:          0  MISS:          0

L2C TOTAL     ACCESS:    9409914  HIT:    6784319  MISS:    2625595  HIT %:    72.0976  MISS %:    27.9024   MPKI: 13.128
L2C LOAD      ACCESS:     113789  HIT:      47045  MISS:      66744  HIT %:    41.3441  MISS %:    58.6559   MPKI: 0.33372
L2C DATA LOAD MPKI: 0.332855
L2C INSTRUCTION LOAD MPKI: 0.000865
L2C RFO       ACCESS:     375003  HIT:       2288  MISS:     372715  HIT %:   0.610128  MISS %:    99.3899   MPKI: 1.86357
L2C PREFETCH  ACCESS:    7713753  HIT:    5590122  MISS:    2123631  HIT %:    72.4695  MISS %:    27.5305   MPKI: 10.6182
L2C DATA PREFETCH MPKI: 10.6182
L2C INSTRUCTION PREFETCH MPKI: 0
L2C WRITEBACK ACCESS:     441893  HIT:     416711  MISS:      25182  HIT %:    94.3013  MISS %:    5.69866   MPKI: 0.12591
L2C LOAD TRANSLATION ACCESS:      71759  HIT:      38305  MISS:      33454  HIT %:    53.3801  MISS %:    46.6199   MPKI: 0.16727
L2C TRANSLATION FROM L1D PREFETCHER ACCESS:     693717  HIT:     689848  MISS:       3869  HIT %:    99.4423  MISS %:    0.55772   MPKI: 0.019345
L2C PREFETCH  REQUESTED:          0  ISSUED:          0  USEFUL:      26893  USELESS:    2094981
L2C USEFUL LOAD PREFETCHES:      26893 PREFETCH ISSUED TO LOWER LEVEL:    2124094  ACCURACY: 1.26609
L2C TIMELY PREFETCHES:      26893 LATE PREFETCHES: 458 DROPPED PREFETCHES: 0
L2C PREFETCHES SAME FILL-ORIGIN LEVEL: 682421 DIFFERENT FILL-ORIGIN LEVEL: 0
L2C AVERAGE MISS LATENCY: 120.129 cycles
L2C RQ	ACCESS:    1254282	FORWARD:          0	MERGED:          0	TO_CACHE:    1254268
L2C WQ	ACCESS:     441893	FORWARD:        147	MERGED:          0	TO_CACHE:     441893
L2C PQ	ACCESS:    8160854	FORWARD:          0	MERGED:          9	TO_CACHE:    8160712

L2C Instructions Evicting Data 171
L2C Translations Evicting Data 36573
L2C Data Evicting Data 2526706
L2C Instructions Evicting Instructions 0
L2C Translations Evicting Instructions 4
L2C Data Evicting Instructions 165
L2C Instructions Evicting Translations 2
L2C Translations Evicting Translations 746
L2C Data Evicting Translations 36046
L2C Dense regions hint from L2: 0
PSCL5 TOTAL     ACCESS:     711885  HIT:     711885  MISS:          0  HIT %:        100  MISS %:          0   MPKI: 0
PSCL5 LOAD TRANSLATION ACCESS:      47835  HIT:      47835  MISS:          0  HIT %:        100  MISS %:          0   MPKI: 0
PSCL5 TRANSLATION FROM L1D PREFETCHER ACCESS:     664050  HIT:     664050  MISS:          0  HIT %:        100  MISS %:          0   MPKI: 0
PSCL5 PREFETCH  REQUESTED:          0  ISSUED:          0  USEFUL:          0  USELESS:          0
PSCL5 USEFUL LOAD PREFETCHES:          0 PREFETCH ISSUED TO LOWER LEVEL:          0  ACCURACY: -nan
PSCL5 TIMELY PREFETCHES:          0 LATE PREFETCHES: 0 DROPPED PREFETCHES: 0
PSCL5 PREFETCHES SAME FILL-ORIGIN LEVEL: 0 DIFFERENT FILL-ORIGIN LEVEL: 0

PSCL4 TOTAL     ACCESS:     711885  HIT:     711885  MISS:          0  HIT %:        100  MISS %:          0   MPKI: 0
PSCL4 LOAD TRANSLATION ACCESS:      47835  HIT:      47835  MISS:          0  HIT %:        100  MISS %:          0   MPKI: 0
PSCL4 TRANSLATION FROM L1D PREFETCHER ACCESS:     664050  HIT:     664050  MISS:          0  HIT %:        100  MISS %:          0   MPKI: 0
PSCL4 PREFETCH  REQUESTED:          0  ISSUED:          0  USEFUL:          0  USELESS:          0
PSCL4 USEFUL LOAD PREFETCHES:          0 PREFETCH ISSUED TO LOWER LEVEL:          0  ACCURACY: -nan
PSCL4 TIMELY PREFETCHES:          0 LATE PREFETCHES: 0 DROPPED PREFETCHES: 0
PSCL4 PREFETCHES SAME FILL-ORIGIN LEVEL: 0 DIFFERENT FILL-ORIGIN LEVEL: 0

PSCL3 TOTAL     ACCESS:     711423  HIT:     711244  MISS:        179  HIT %:    99.9748  MISS %:  0.0251608   MPKI: 0.000895
PSCL3 LOAD TRANSLATION ACCESS:      47817  HIT:      47638  MISS:        179  HIT %:    99.6257  MISS %:   0.374344   MPKI: 0.000895
PSCL3 TRANSLATION FROM L1D PREFETCHER ACCESS:     663606  HIT:     663606  MISS:          0  HIT %:        100  MISS %:          0   MPKI: 0
PSCL3 PREFETCH  REQUESTED:          0  ISSUED:          0  USEFUL:          0  USELESS:          0
PSCL3 USEFUL LOAD PREFETCHES:          0 PREFETCH ISSUED TO LOWER LEVEL:          0  ACCURACY: -nan
PSCL3 TIMELY PREFETCHES:          0 LATE PREFETCHES: 0 DROPPED PREFETCHES: 0
PSCL3 PREFETCHES SAME FILL-ORIGIN LEVEL: 0 DIFFERENT FILL-ORIGIN LEVEL: 0

PSCL2 TOTAL     ACCESS:     681037  HIT:     657015  MISS:      24022  HIT %:    96.4727  MISS %:    3.52727   MPKI: 0.12011
PSCL2 LOAD TRANSLATION ACCESS:      47842  HIT:      23820  MISS:      24022  HIT %:    49.7889  MISS %:    50.2111   MPKI: 0.12011
PSCL2 TRANSLATION FROM L1D PREFETCHER ACCESS:     633195  HIT:     633195  MISS:          0  HIT %:        100  MISS %:          0   MPKI: 0
PSCL2 PREFETCH  REQUESTED:          0  ISSUED:          0  USEFUL:          0  USELESS:          0
PSCL2 USEFUL LOAD PREFETCHES:          0 PREFETCH ISSUED TO LOWER LEVEL:          0  ACCURACY: -nan
PSCL2 TIMELY PREFETCHES:          0 LATE PREFETCHES: 0 DROPPED PREFETCHES: 0
PSCL2 PREFETCHES SAME FILL-ORIGIN LEVEL: 0 DIFFERENT FILL-ORIGIN LEVEL: 0

LLC TOTAL     ACCESS:    3013000  HIT:     900990  MISS:    2112010  HIT %:    29.9034  MISS %:    70.0966   MPKI: 10.56
LLC LOAD      ACCESS:      66287  HIT:       7587  MISS:      58700  HIT %:    11.4457  MISS %:    88.5543   MPKI: 0.2935
LLC RFO       ACCESS:     372714  HIT:     189410  MISS:     183304  HIT %:    50.8191  MISS %:    49.1809   MPKI: 0.91652
LLC PREFETCH  ACCESS:    2124089  HIT:     446885  MISS:    1677204  HIT %:    21.0389  MISS %:    78.9611   MPKI: 8.38602
LLC WRITEBACK ACCESS:     412587  HIT:     239609  MISS:     172978  HIT %:    58.0748  MISS %:    41.9252   MPKI: 0.86489
LLC LOAD TRANSLATION ACCESS:      33454  HIT:      17329  MISS:      16125  HIT %:    51.7995  MISS %:    48.2005   MPKI: 0.080625
LLC TRANSLATION FROM L1D PREFETCHER ACCESS:       3869  HIT:        170  MISS:       3699  HIT %:     4.3939  MISS %:    95.6061   MPKI: 0.018495
LLC PREFETCH  REQUESTED:          0  ISSUED:          0  USEFUL:       2699  USELESS:    1650997
LLC USEFUL LOAD PREFETCHES:       2699 PREFETCH ISSUED TO LOWER LEVEL:    1677209  ACCURACY: 0.160922
LLC TIMELY PREFETCHES:       2699 LATE PREFETCHES: 0 DROPPED PREFETCHES: 0
LLC PREFETCHES SAME FILL-ORIGIN LEVEL: 0 DIFFERENT FILL-ORIGIN LEVEL: 0
LLC AVERAGE MISS LATENCY: 110.423 cycles
LLC RQ	ACCESS:     476324	FORWARD:          0	MERGED:          0	TO_CACHE:     476324
LLC WQ	ACCESS:     412587	FORWARD:          0	MERGED:          0	TO_CACHE:     412587
LLC PQ	ACCESS:    2124094	FORWARD:          0	MERGED:          0	TO_CACHE:    2124094

LLC Dense regions hint to LLC: 0

RAW hits: 893404
Loads Generated: 73695281
Loads sent to L1D: 72801876
Stores Generated: 11408451
Stores sent to L1D: 11408461
Major fault: 0 Minor fault: 53394
Allocated PAGES: 53394

DRAM Statistics
 CHANNEL 0
 RQ ROW_BUFFER_HIT:    1267825  ROW_BUFFER_MISS:     671184
 DBUS_CONGESTED:       2043
 WQ ROW_BUFFER_HIT:      39878  ROW_BUFFER_MISS:     178847  FULL:          0

 AVG_CONGESTED_CYCLE: 4
 All warmup complete: 2
Channel 0 Bank busy for read cycles: 0
Channel 0 Bank busy for write cycles: 0
Channel 0
Rank 0
0banks busy for read cycles: 80206107
0banks busy for write cycles: 79598
1banks busy for read cycles: 55599831
1banks busy for write cycles: 11710610
2banks busy for read cycles: 21047949
2banks busy for write cycles: 4089420
3banks busy for read cycles: 6526695
3banks busy for write cycles: 1736472
4banks busy for read cycles: 2647529
4banks busy for write cycles: 850278
5banks busy for read cycles: 1494495
5banks busy for write cycles: 511973
6banks busy for read cycles: 1102951
6banks busy for write cycles: 385377
7banks busy for read cycles: 995785
7banks busy for write cycles: 392366
8banks busy for read cycles: 1904088
8banks busy for write cycles: 1274236

CPU 0 Branch Prediction Accuracy: 99.9381% MPKI: 0.021955 Average ROB Occupancy at Mispredict: 65.9326
Branch types
NOT_BRANCH: 192900803 96.4504%
BRANCH_DIRECT_JUMP: 147 7.35e-05%
BRANCH_INDIRECT: 0 0%
BRANCH_CONDITIONAL: 7098475 3.54924%
BRANCH_DIRECT_CALL: 129 6.45e-05%
BRANCH_INDIRECT_CALL: 0 0%
BRANCH_RETURN: 129 6.45e-05%
BRANCH_OTHER: 0 0%

DRAM PAGES: 1048576
Allocated PAGES: 53394
