
*** ChampSim Multicore Out-of-Order Simulator ***

Warmup Instructions: 50000000
Simulation Instructions: 200000000
Number of CPUs: 1
LLC sets: 2048
LLC ways: 16
Off-chip DRAM Size: 4096 MB Channels: 1 Width: 64-bit Data Rate: 6400 MT/s
argv[0]: ./ChampSim/Berti/bin/multiperspective_perceptron8kb-no-vberti-no-no-no-no-no-lru-lru-lru-srrip-drrip-lru-lru-lru-1core-no
argv[1]: -warmup_instructions
argv[2]: 50000000
argv[3]: -simulation_instructions
argv[4]: 200000000
argv[5]: -traces
argv[6]: traces/spec2k17_ten/654.roms_s-523B.champsimtrace.xz
CPU 0 runs traces/spec2k17_ten/654.roms_s-523B.champsimtrace.xz
.xz
CPU 0 Multiperspective perceptron branch predictor
BTB has LRU replacement policy
ITLB has LRU replacement policy
DTLB has LRU replacement policy
STLB has LRU replacement policy
L1I has LRU replacement policy
History Sets: 8
History Ways: 16
BERTI Size: 16
BERTI Stride Size: 16
L1D has LRU replacement policy
Initialize SRRIP state for L2C
Initialize DRRIP state for LLC
Heartbeat CPU 0 instructions: 10000002 cycles: 2874810 heartbeat IPC: 3.47849 cumulative IPC: 3.47849 (Simulation time: 0 hr 12 min 2 sec) 
Heartbeat CPU 0 instructions: 20000002 cycles: 5708748 heartbeat IPC: 3.52866 cumulative IPC: 3.5034 (Simulation time: 0 hr 18 min 15 sec) 
Heartbeat CPU 0 instructions: 30000003 cycles: 9207161 heartbeat IPC: 2.85844 cumulative IPC: 3.25833 (Simulation time: 0 hr 25 min 49 sec) 
Heartbeat CPU 0 instructions: 40000000 cycles: 12473960 heartbeat IPC: 3.0611 cumulative IPC: 3.20668 (Simulation time: 0 hr 32 min 9 sec) 
Heartbeat CPU 0 instructions: 50000001 cycles: 15547636 heartbeat IPC: 3.25343 cumulative IPC: 3.21592 (Simulation time: 0 hr 39 min 41 sec) 

Warmup complete CPU 0 instructions: 50000001 cycles: 15547636 (Simulation time: 0 hr 39 min 41 sec) 

Heartbeat CPU 0 instructions: 60000003 cycles: 25616368 heartbeat IPC: 0.993174 cumulative IPC: 0.993174 (Simulation time: 0 hr 48 min 4 sec) 
Heartbeat CPU 0 instructions: 70000000 cycles: 35116197 heartbeat IPC: 1.05265 cumulative IPC: 1.02205 (Simulation time: 1 hr 0 min 27 sec) 
Heartbeat CPU 0 instructions: 80000001 cycles: 44003603 heartbeat IPC: 1.12519 cumulative IPC: 1.05426 (Simulation time: 1 hr 11 min 31 sec) 
Heartbeat CPU 0 instructions: 90000003 cycles: 55264632 heartbeat IPC: 0.888018 cumulative IPC: 1.00713 (Simulation time: 1 hr 20 min 6 sec) 
Heartbeat CPU 0 instructions: 100000001 cycles: 66399730 heartbeat IPC: 0.898061 cumulative IPC: 0.983244 (Simulation time: 1 hr 27 min 11 sec) 
Heartbeat CPU 0 instructions: 110000000 cycles: 78992791 heartbeat IPC: 0.794088 cumulative IPC: 0.945699 (Simulation time: 1 hr 36 min 35 sec) 
Heartbeat CPU 0 instructions: 120000000 cycles: 92334488 heartbeat IPC: 0.74953 cumulative IPC: 0.911614 (Simulation time: 1 hr 44 min 43 sec) 
Heartbeat CPU 0 instructions: 130000002 cycles: 102524704 heartbeat IPC: 0.981334 cumulative IPC: 0.919783 (Simulation time: 1 hr 51 min 30 sec) 
Heartbeat CPU 0 instructions: 140000001 cycles: 112537361 heartbeat IPC: 0.998736 cumulative IPC: 0.927933 (Simulation time: 2 hr 0 min 1 sec) 
Heartbeat CPU 0 instructions: 150000000 cycles: 121763539 heartbeat IPC: 1.08387 cumulative IPC: 0.941479 (Simulation time: 2 hr 7 min 12 sec) 
Heartbeat CPU 0 instructions: 160000002 cycles: 130543935 heartbeat IPC: 1.1389 cumulative IPC: 0.956553 (Simulation time: 2 hr 14 min 8 sec) 
Heartbeat CPU 0 instructions: 170000003 cycles: 141839934 heartbeat IPC: 0.885269 cumulative IPC: 0.950177 (Simulation time: 2 hr 23 min 10 sec) 
Heartbeat CPU 0 instructions: 180000001 cycles: 152831343 heartbeat IPC: 0.909801 cumulative IPC: 0.946944 (Simulation time: 2 hr 29 min 59 sec) 
Heartbeat CPU 0 instructions: 190000003 cycles: 165611688 heartbeat IPC: 0.782452 cumulative IPC: 0.932935 (Simulation time: 2 hr 39 min 13 sec) 
Heartbeat CPU 0 instructions: 200000001 cycles: 178966584 heartbeat IPC: 0.748789 cumulative IPC: 0.917886 (Simulation time: 2 hr 47 min 45 sec) 
Heartbeat CPU 0 instructions: 210000002 cycles: 189640085 heartbeat IPC: 0.9369 cumulative IPC: 0.919052 (Simulation time: 2 hr 56 min 21 sec) 
Heartbeat CPU 0 instructions: 220000000 cycles: 199439284 heartbeat IPC: 1.02049 cumulative IPC: 0.924457 (Simulation time: 3 hr 7 min 0 sec) 
Heartbeat CPU 0 instructions: 230000000 cycles: 208594662 heartbeat IPC: 1.09225 cumulative IPC: 0.932415 (Simulation time: 3 hr 14 min 13 sec) 
Heartbeat CPU 0 instructions: 240000000 cycles: 217272350 heartbeat IPC: 1.15238 cumulative IPC: 0.941878 (Simulation time: 3 hr 18 min 33 sec) 
Heartbeat CPU 0 instructions: 250000001 cycles: 228684120 heartbeat IPC: 0.876288 cumulative IPC: 0.938366 (Simulation time: 3 hr 23 min 52 sec) 
Finished CPU 0 instructions: 200000000 cycles: 213136484 cumulative IPC: 0.938366 (Simulation time: 3 hr 23 min 52 sec) 

ChampSim completed all CPUs

Region of Interest Statistics

CPU 0 cumulative IPC: 0.938366 instructions: 200000000 cycles: 213136484
ITLB TOTAL     ACCESS:   30225721  HIT:   30225721  MISS:          0  HIT %:        100  MISS %:          0   MPKI: 0
ITLB LOAD TRANSLATION ACCESS:   30225721  HIT:   30225721  MISS:          0  HIT %:        100  MISS %:          0   MPKI: 0
ITLB PREFETCH  REQUESTED:          0  ISSUED:          0  USEFUL:          0  USELESS:          0
ITLB USEFUL LOAD PREFETCHES:          0 PREFETCH ISSUED TO LOWER LEVEL:          0  ACCURACY: -nan
ITLB TIMELY PREFETCHES:          0 LATE PREFETCHES: 0 DROPPED PREFETCHES: 0
ITLB PREFETCHES SAME FILL-ORIGIN LEVEL: 0 DIFFERENT FILL-ORIGIN LEVEL: 0
ITLB AVERAGE MISS LATENCY: -nan cycles
ITLB RQ	ACCESS:   35881482	FORWARD:          0	MERGED:    5655762	TO_CACHE:   30225720

DTLB TOTAL     ACCESS:   53981675  HIT:   53881056  MISS:     100619  HIT %:    99.8136  MISS %:   0.186395   MPKI: 0.503095
DTLB LOAD TRANSLATION ACCESS:   53981675  HIT:   53881056  MISS:     100619  HIT %:    99.8136  MISS %:   0.186395   MPKI: 0.503095
DTLB PREFETCH  REQUESTED:          0  ISSUED:          0  USEFUL:          0  USELESS:          0
DTLB USEFUL LOAD PREFETCHES:          0 PREFETCH ISSUED TO LOWER LEVEL:          0  ACCURACY: -nan
DTLB TIMELY PREFETCHES:          0 LATE PREFETCHES: 0 DROPPED PREFETCHES: 0
DTLB PREFETCHES SAME FILL-ORIGIN LEVEL: 0 DIFFERENT FILL-ORIGIN LEVEL: 0
DTLB AVERAGE MISS LATENCY: 77.3629 cycles
DTLB RQ	ACCESS:   59529130	FORWARD:          0	MERGED:    5457617	TO_CACHE:   54071513

STLB TOTAL     ACCESS:   25533342  HIT:   25433393  MISS:      99949  HIT %:    99.6086  MISS %:   0.391445   MPKI: 0.499745
STLB LOAD TRANSLATION ACCESS:     100619  HIT:      54619  MISS:      46000  HIT %:     54.283  MISS %:     45.717   MPKI: 0.23
STLB TRANSLATION FROM L1D PREFETCHER ACCESS:   25432723  HIT:   25378774  MISS:      53949  HIT %:    99.7879  MISS %:   0.212124   MPKI: 0.269745
STLB PREFETCH  REQUESTED:          0  ISSUED:          0  USEFUL:      53943  USELESS:          6
STLB USEFUL LOAD PREFETCHES:      53943 PREFETCH ISSUED TO LOWER LEVEL:          0  ACCURACY: inf
STLB TIMELY PREFETCHES:      53943 LATE PREFETCHES: 2009 DROPPED PREFETCHES: 669660
STLB PREFETCHES SAME FILL-ORIGIN LEVEL: 0 DIFFERENT FILL-ORIGIN LEVEL: 0
STLB AVERAGE MISS LATENCY: 110.915 cycles
STLB RQ	ACCESS:  103971101	FORWARD:          0	MERGED:   77707547	TO_CACHE:   26263554

STLB Hit, L1D data hit: 0
STLB Hit, L2C data hit: 0
STLB Hit, LLC data hit: 0
STLB Hit, LLC data miss: 0
STLB STLB hints to L2: 0
L1D TOTAL     ACCESS:  138140852  HIT:  133211476  MISS:    4929376  HIT %:    96.4316  MISS %:    3.56837   MPKI: 24.6469
L1D LOAD      ACCESS:   47876845  HIT:   47598466  MISS:     278379  HIT %:    99.4186  MISS %:   0.581448   MPKI: 1.3919
L1D RFO       ACCESS:    3647060  HIT:    2438867  MISS:    1208193  HIT %:    66.8721  MISS %:    33.1279   MPKI: 6.04096
L1D PREFETCH  ACCESS:   86616947  HIT:   83174143  MISS:    3442804  HIT %:    96.0253  MISS %:    3.97475   MPKI: 17.214
L1D PREFETCH  REQUESTED:  301976904  ISSUED:  223209041  USEFUL:    2946927  USELESS:     495862
L1D USEFUL LOAD PREFETCHES:    2946927 PREFETCH ISSUED TO LOWER LEVEL:   13765015  ACCURACY: 21.4088
L1D TIMELY PREFETCHES:    2946927 LATE PREFETCHES: 31660 DROPPED PREFETCHES: 1288257
L1D PREFETCHES SAME FILL-ORIGIN LEVEL: 3474641 DIFFERENT FILL-ORIGIN LEVEL: 10290374
L1D AVERAGE MISS LATENCY: 228.291 cycles
L1D RQ	ACCESS:   74181556	FORWARD:          0	MERGED:   26054354	TO_CACHE:   48125364
L1D WQ	ACCESS:   11403766	FORWARD:       1838	MERGED:          0	TO_CACHE:   11403766
L1D PQ	ACCESS:  119338559	FORWARD:          0	MERGED:   15468077	TO_CACHE:  103870482

L1D UNIQUE REGIONS ACCESSED: 0
L1D REGIONS CONFLICTS: 0
L1D Cross Page Prefetch Requests: 18490257
L1D Same Page Prefetch Requests: 128069182
L1D ROI Sum of L1D PQ occupancy: 1756037045
L1D PREFETCHES PUSHED FROM L2C: 0
L1I TOTAL     ACCESS:   35881470  HIT:   35881438  MISS:         32  HIT %:    99.9999  MISS %: 8.91825e-05   MPKI: 0.00016
L1I LOAD      ACCESS:   35881470  HIT:   35881438  MISS:         32  HIT %:    99.9999  MISS %: 8.91825e-05   MPKI: 0.00016
L1I PREFETCH  REQUESTED:          0  ISSUED:          0  USEFUL:          0  USELESS:          0
L1I USEFUL LOAD PREFETCHES:          0 PREFETCH ISSUED TO LOWER LEVEL:          0  ACCURACY: -nan
L1I TIMELY PREFETCHES:          0 LATE PREFETCHES: 0 DROPPED PREFETCHES: 0
L1I PREFETCHES SAME FILL-ORIGIN LEVEL: 0 DIFFERENT FILL-ORIGIN LEVEL: 0
L1I AVERAGE MISS LATENCY: 313.125 cycles
L1I RQ	ACCESS:   52104616	FORWARD:          0	MERGED:   16223134	TO_CACHE:   35881482

BTB TOTAL     ACCESS:   12959621  HIT:   12959575  MISS:         46  HIT %:    99.9996  MISS %: 0.000354949   MPKI: 0.00023
BTB BRANCH_DIRECT_JUMP	ACCESS:    1451293  HIT:    1451288  MISS:          5
BTB BRANCH_INDIRECT	ACCESS:          0  HIT:          0  MISS:          0
BTB BRANCH_CONDITIONAL	ACCESS:   11508328  HIT:   11508287  MISS:         41
BTB BRANCH_DIRECT_CALL	ACCESS:          0  HIT:          0  MISS:          0
BTB BRANCH_INDIRECT_CALL	ACCESS:          0  HIT:          0  MISS:          0
BTB BRANCH_RETURN	ACCESS:          0  HIT:          0  MISS:          0
BTB BRANCH_OTHER ACCESS:          0  HIT:          0  MISS:          0

L2C TOTAL     ACCESS:   13925878  HIT:    8996036  MISS:    4929842  HIT %:    64.5994  MISS %:    35.4006   MPKI: 24.6492
L2C LOAD      ACCESS:     246733  HIT:     154637  MISS:      92096  HIT %:    62.6738  MISS %:    37.3262   MPKI: 0.46048
L2C DATA LOAD MPKI: 0.46032
L2C INSTRUCTION LOAD MPKI: 0.00016
L2C RFO       ACCESS:    1208192  HIT:          0  MISS:    1208192  HIT %:          0  MISS %:        100   MPKI: 6.04096
L2C PREFETCH  ACCESS:   10223193  HIT:    6630429  MISS:    3592764  HIT %:    64.8567  MISS %:    35.1433   MPKI: 17.9638
L2C DATA PREFETCH MPKI: 17.9638
L2C INSTRUCTION PREFETCH MPKI: 0
L2C WRITEBACK ACCESS:    1475971  HIT:    1460265  MISS:      15706  HIT %:    98.9359  MISS %:    1.06411   MPKI: 0.07853
L2C LOAD TRANSLATION ACCESS:      45994  HIT:      38494  MISS:       7500  HIT %:    83.6935  MISS %:    16.3065   MPKI: 0.0375
L2C TRANSLATION FROM L1D PREFETCHER ACCESS:     725795  HIT:     712211  MISS:      13584  HIT %:    98.1284  MISS %:     1.8716   MPKI: 0.06792
L2C PREFETCH  REQUESTED:          0  ISSUED:          0  USEFUL:     153451  USELESS:    3452842
L2C USEFUL LOAD PREFETCHES:     153451 PREFETCH ISSUED TO LOWER LEVEL:    3620936  ACCURACY: 4.23788
L2C TIMELY PREFETCHES:     153451 LATE PREFETCHES: 28170 DROPPED PREFETCHES: 0
L2C PREFETCHES SAME FILL-ORIGIN LEVEL: 1618363 DIFFERENT FILL-ORIGIN LEVEL: 0
L2C AVERAGE MISS LATENCY: 310.074 cycles
L2C RQ	ACCESS:    2226732	FORWARD:          0	MERGED:          0	TO_CACHE:    2226714
L2C WQ	ACCESS:    1475971	FORWARD:         18	MERGED:          0	TO_CACHE:    1475971
L2C PQ	ACCESS:   13696656	FORWARD:          0	MERGED:       9259	TO_CACHE:   13687397

L2C Instructions Evicting Data 32
L2C Translations Evicting Data 21039
L2C Data Evicting Data 4872048
L2C Instructions Evicting Instructions 0
L2C Translations Evicting Instructions 0
L2C Data Evicting Instructions 32
L2C Instructions Evicting Translations 0
L2C Translations Evicting Translations 45
L2C Data Evicting Translations 20940
L2C Dense regions hint from L2: 0
PSCL5 TOTAL     ACCESS:     771489  HIT:     771489  MISS:          0  HIT %:        100  MISS %:          0   MPKI: 0
PSCL5 LOAD TRANSLATION ACCESS:      45871  HIT:      45871  MISS:          0  HIT %:        100  MISS %:          0   MPKI: 0
PSCL5 TRANSLATION FROM L1D PREFETCHER ACCESS:     725618  HIT:     725618  MISS:          0  HIT %:        100  MISS %:          0   MPKI: 0
PSCL5 PREFETCH  REQUESTED:          0  ISSUED:          0  USEFUL:          0  USELESS:          0
PSCL5 USEFUL LOAD PREFETCHES:          0 PREFETCH ISSUED TO LOWER LEVEL:          0  ACCURACY: -nan
PSCL5 TIMELY PREFETCHES:          0 LATE PREFETCHES: 0 DROPPED PREFETCHES: 0
PSCL5 PREFETCHES SAME FILL-ORIGIN LEVEL: 0 DIFFERENT FILL-ORIGIN LEVEL: 0

PSCL4 TOTAL     ACCESS:     771489  HIT:     771489  MISS:          0  HIT %:        100  MISS %:          0   MPKI: 0
PSCL4 LOAD TRANSLATION ACCESS:      45871  HIT:      45871  MISS:          0  HIT %:        100  MISS %:          0   MPKI: 0
PSCL4 TRANSLATION FROM L1D PREFETCHER ACCESS:     725618  HIT:     725618  MISS:          0  HIT %:        100  MISS %:          0   MPKI: 0
PSCL4 PREFETCH  REQUESTED:          0  ISSUED:          0  USEFUL:          0  USELESS:          0
PSCL4 USEFUL LOAD PREFETCHES:          0 PREFETCH ISSUED TO LOWER LEVEL:          0  ACCURACY: -nan
PSCL4 TIMELY PREFETCHES:          0 LATE PREFETCHES: 0 DROPPED PREFETCHES: 0
PSCL4 PREFETCHES SAME FILL-ORIGIN LEVEL: 0 DIFFERENT FILL-ORIGIN LEVEL: 0

PSCL3 TOTAL     ACCESS:     771489  HIT:     771489  MISS:          0  HIT %:        100  MISS %:          0   MPKI: 0
PSCL3 LOAD TRANSLATION ACCESS:      45871  HIT:      45871  MISS:          0  HIT %:        100  MISS %:          0   MPKI: 0
PSCL3 TRANSLATION FROM L1D PREFETCHER ACCESS:     725618  HIT:     725618  MISS:          0  HIT %:        100  MISS %:          0   MPKI: 0
PSCL3 PREFETCH  REQUESTED:          0  ISSUED:          0  USEFUL:          0  USELESS:          0
PSCL3 USEFUL LOAD PREFETCHES:          0 PREFETCH ISSUED TO LOWER LEVEL:          0  ACCURACY: -nan
PSCL3 TIMELY PREFETCHES:          0 LATE PREFETCHES: 0 DROPPED PREFETCHES: 0
PSCL3 PREFETCHES SAME FILL-ORIGIN LEVEL: 0 DIFFERENT FILL-ORIGIN LEVEL: 0

PSCL2 TOTAL     ACCESS:     765724  HIT:     765490  MISS:        234  HIT %:    99.9694  MISS %:  0.0305593   MPKI: 0.00117
PSCL2 LOAD TRANSLATION ACCESS:      45917  HIT:      45683  MISS:        234  HIT %:    99.4904  MISS %:   0.509615   MPKI: 0.00117
PSCL2 TRANSLATION FROM L1D PREFETCHER ACCESS:     719807  HIT:     719807  MISS:          0  HIT %:        100  MISS %:          0   MPKI: 0
PSCL2 PREFETCH  REQUESTED:          0  ISSUED:          0  USEFUL:          0  USELESS:          0
PSCL2 USEFUL LOAD PREFETCHES:          0 PREFETCH ISSUED TO LOWER LEVEL:          0  ACCURACY: -nan
PSCL2 TIMELY PREFETCHES:          0 LATE PREFETCHES: 0 DROPPED PREFETCHES: 0
PSCL2 PREFETCHES SAME FILL-ORIGIN LEVEL: 0 DIFFERENT FILL-ORIGIN LEVEL: 0

LLC TOTAL     ACCESS:    6388372  HIT:    1031013  MISS:    5357359  HIT %:    16.1389  MISS %:    83.8611   MPKI: 26.7868
LLC LOAD      ACCESS:      63926  HIT:       1223  MISS:      62703  HIT %:    1.91315  MISS %:    98.0869   MPKI: 0.313515
LLC RFO       ACCESS:    1208192  HIT:          0  MISS:    1208192  HIT %:          0  MISS %:        100   MPKI: 6.04096
LLC PREFETCH  ACCESS:    3620934  HIT:      28533  MISS:    3592401  HIT %:   0.788001  MISS %:     99.212   MPKI: 17.962
LLC WRITEBACK ACCESS:    1474236  HIT:    1001157  MISS:     473079  HIT %:    67.9102  MISS %:    32.0898   MPKI: 2.36539
LLC LOAD TRANSLATION ACCESS:       7500  HIT:         32  MISS:       7468  HIT %:   0.426667  MISS %:    99.5733   MPKI: 0.03734
LLC TRANSLATION FROM L1D PREFETCHER ACCESS:      13584  HIT:         68  MISS:      13516  HIT %:   0.500589  MISS %:    99.4994   MPKI: 0.06758
LLC PREFETCH  REQUESTED:          0  ISSUED:          0  USEFUL:        906  USELESS:    3626200
LLC USEFUL LOAD PREFETCHES:        906 PREFETCH ISSUED TO LOWER LEVEL:    3592403  ACCURACY: 0.0252199
LLC TIMELY PREFETCHES:        906 LATE PREFETCHES: 0 DROPPED PREFETCHES: 0
LLC PREFETCHES SAME FILL-ORIGIN LEVEL: 0 DIFFERENT FILL-ORIGIN LEVEL: 0
LLC AVERAGE MISS LATENCY: 258.378 cycles
LLC RQ	ACCESS:    1293202	FORWARD:          0	MERGED:          0	TO_CACHE:    1293202
LLC WQ	ACCESS:    1474236	FORWARD:          0	MERGED:          0	TO_CACHE:    1474236
LLC PQ	ACCESS:    3620936	FORWARD:          0	MERGED:          0	TO_CACHE:    3620936

LLC Dense regions hint to LLC: 0

RAW hits: 23718
Loads Generated: 74205272
Loads sent to L1D: 74181556
Stores Generated: 11403765
Stores sent to L1D: 11403766
Major fault: 0 Minor fault: 35137
Allocated PAGES: 35137

DRAM Statistics
 CHANNEL 0
 RQ ROW_BUFFER_HIT:     759220  ROW_BUFFER_MISS:    4124953
 DBUS_CONGESTED:        124
 WQ ROW_BUFFER_HIT:     188658  ROW_BUFFER_MISS:    1262718  FULL:        930

 AVG_CONGESTED_CYCLE: 5
 All warmup complete: 2
Channel 0 Bank busy for read cycles: 0
Channel 0 Bank busy for write cycles: 0
Channel 0
Rank 0
0banks busy for read cycles: 123833
0banks busy for write cycles: 47
1banks busy for read cycles: 20810500
1banks busy for write cycles: 210374
2banks busy for read cycles: 33577204
2banks busy for write cycles: 209653
3banks busy for read cycles: 32350625
3banks busy for write cycles: 207205
4banks busy for read cycles: 26985089
4banks busy for write cycles: 212177
5banks busy for read cycles: 19983919
5banks busy for write cycles: 215512
6banks busy for read cycles: 15512749
6banks busy for write cycles: 265156
7banks busy for read cycles: 12226022
7banks busy for write cycles: 2691396
8banks busy for read cycles: 14351867
8banks busy for write cycles: 33203157

CPU 0 Branch Prediction Accuracy: 99.9636% MPKI: 0.02122 Average ROB Occupancy at Mispredict: 154.49
Branch types
NOT_BRANCH: 186881132 93.4406%
BRANCH_DIRECT_JUMP: 1451293 0.725646%
BRANCH_INDIRECT: 0 0%
BRANCH_CONDITIONAL: 11667242 5.83362%
BRANCH_DIRECT_CALL: 0 0%
BRANCH_INDIRECT_CALL: 0 0%
BRANCH_RETURN: 0 0%
BRANCH_OTHER: 0 0%

DRAM PAGES: 1048576
Allocated PAGES: 35137
