526208 bits of metadata so far, 405638 left out of 526336 total budget
table size is 13521 bits, 2253 entries for 5 bit, 1931 entries for 6 bit
526208 total bits (64.23KB)

*** ChampSim Multicore Out-of-Order Simulator ***

Warmup Instructions: 50000000
Simulation Instructions: 200000000
Number of CPUs: 1
LLC sets: 2048
LLC ways: 16
Off-chip DRAM Size: 4096 MB Channels: 1 Width: 64-bit Data Rate: 6400 MT/s
argv[0]: ./ChampSim/Berti/bin/multiperspective_perceptron-no-vberti-no-no-no-no-no-lru-lru-lru-srrip-drrip-lru-lru-lru-1core-no
argv[1]: -warmup_instructions
argv[2]: 50000000
argv[3]: -simulation_instructions
argv[4]: 200000000
argv[5]: -traces
argv[6]: traces/spec2k17_ten/600.perlbench_s-1273B.champsimtrace.xz
CPU 0 runs traces/spec2k17_ten/600.perlbench_s-1273B.champsimtrace.xz
.xz
CPU 0 Multiperspective perceptron branch predictor
BTB has LRU replacement policy
ITLB has LRU replacement policy
DTLB has LRU replacement policy
STLB has LRU replacement policy
L1I has LRU replacement policy
History Sets: 8
History Ways: 16
BERTI Size: 16
BERTI Stride Size: 16
L1D has LRU replacement policy
Initialize SRRIP state for L2C
Initialize DRRIP state for LLC
Heartbeat CPU 0 instructions: 10000002 cycles: 2864289 heartbeat IPC: 3.49127 cumulative IPC: 3.49127 (Simulation time: 0 hr 2 min 59 sec) 
Heartbeat CPU 0 instructions: 20000001 cycles: 5751367 heartbeat IPC: 3.46371 cumulative IPC: 3.47743 (Simulation time: 0 hr 6 min 0 sec) 
Heartbeat CPU 0 instructions: 30000002 cycles: 8528014 heartbeat IPC: 3.60147 cumulative IPC: 3.51782 (Simulation time: 0 hr 11 min 3 sec) 
Heartbeat CPU 0 instructions: 40000001 cycles: 11366020 heartbeat IPC: 3.5236 cumulative IPC: 3.51926 (Simulation time: 0 hr 12 min 36 sec) 
Heartbeat CPU 0 instructions: 50000001 cycles: 14222797 heartbeat IPC: 3.50045 cumulative IPC: 3.51548 (Simulation time: 0 hr 15 min 23 sec) 

Warmup complete CPU 0 instructions: 50000001 cycles: 14222797 (Simulation time: 0 hr 15 min 23 sec) 

Heartbeat CPU 0 instructions: 60000002 cycles: 28353186 heartbeat IPC: 0.707695 cumulative IPC: 0.707695 (Simulation time: 0 hr 19 min 12 sec) 
Heartbeat CPU 0 instructions: 70000000 cycles: 43420383 heartbeat IPC: 0.663693 cumulative IPC: 0.684988 (Simulation time: 0 hr 23 min 12 sec) 
Heartbeat CPU 0 instructions: 80000002 cycles: 57813823 heartbeat IPC: 0.694761 cumulative IPC: 0.688215 (Simulation time: 0 hr 26 min 38 sec) 
Heartbeat CPU 0 instructions: 90000000 cycles: 71861309 heartbeat IPC: 0.711871 cumulative IPC: 0.69398 (Simulation time: 0 hr 30 min 40 sec) 
Heartbeat CPU 0 instructions: 100000000 cycles: 85698916 heartbeat IPC: 0.722668 cumulative IPC: 0.699534 (Simulation time: 0 hr 35 min 4 sec) 
Heartbeat CPU 0 instructions: 110000000 cycles: 100515713 heartbeat IPC: 0.67491 cumulative IPC: 0.695306 (Simulation time: 0 hr 38 min 49 sec) 
Heartbeat CPU 0 instructions: 120000000 cycles: 115809795 heartbeat IPC: 0.653848 cumulative IPC: 0.689065 (Simulation time: 0 hr 42 min 55 sec) 
Heartbeat CPU 0 instructions: 130000002 cycles: 130596095 heartbeat IPC: 0.676302 cumulative IPC: 0.687443 (Simulation time: 0 hr 46 min 55 sec) 
Heartbeat CPU 0 instructions: 140000002 cycles: 145670255 heartbeat IPC: 0.663387 cumulative IPC: 0.684684 (Simulation time: 0 hr 51 min 46 sec) 
Heartbeat CPU 0 instructions: 150000001 cycles: 159463193 heartbeat IPC: 0.725009 cumulative IPC: 0.688514 (Simulation time: 0 hr 56 min 24 sec) 
Heartbeat CPU 0 instructions: 160000001 cycles: 174048538 heartbeat IPC: 0.68562 cumulative IPC: 0.68825 (Simulation time: 1 hr 0 min 54 sec) 
Heartbeat CPU 0 instructions: 170000001 cycles: 188782526 heartbeat IPC: 0.678703 cumulative IPC: 0.687444 (Simulation time: 1 hr 4 min 45 sec) 
Heartbeat CPU 0 instructions: 180000002 cycles: 204090052 heartbeat IPC: 0.653274 cumulative IPC: 0.684689 (Simulation time: 1 hr 8 min 41 sec) 
Heartbeat CPU 0 instructions: 190000002 cycles: 219238955 heartbeat IPC: 0.660114 cumulative IPC: 0.682873 (Simulation time: 1 hr 13 min 16 sec) 
Heartbeat CPU 0 instructions: 200000000 cycles: 233250648 heartbeat IPC: 0.71369 cumulative IPC: 0.684844 (Simulation time: 1 hr 18 min 12 sec) 
Heartbeat CPU 0 instructions: 210000000 cycles: 247178228 heartbeat IPC: 0.718 cumulative IPC: 0.686827 (Simulation time: 1 hr 22 min 7 sec) 
Heartbeat CPU 0 instructions: 220000000 cycles: 262143978 heartbeat IPC: 0.668192 cumulative IPC: 0.685702 (Simulation time: 1 hr 26 min 22 sec) 
Heartbeat CPU 0 instructions: 230000000 cycles: 276718279 heartbeat IPC: 0.686139 cumulative IPC: 0.685726 (Simulation time: 1 hr 29 min 47 sec) 
Heartbeat CPU 0 instructions: 240000000 cycles: 292053912 heartbeat IPC: 0.652076 cumulative IPC: 0.683869 (Simulation time: 1 hr 33 min 2 sec) 
Heartbeat CPU 0 instructions: 250000002 cycles: 307700722 heartbeat IPC: 0.639108 cumulative IPC: 0.681482 (Simulation time: 1 hr 36 min 4 sec) 
Finished CPU 0 instructions: 200000001 cycles: 293477925 cumulative IPC: 0.681482 (Simulation time: 1 hr 36 min 4 sec) 

ChampSim completed all CPUs

Region of Interest Statistics

CPU 0 cumulative IPC: 0.681482 instructions: 200000001 cycles: 293477925
ITLB TOTAL     ACCESS:   29194675  HIT:   29193914  MISS:        761  HIT %:    99.9974  MISS %: 0.00260664   MPKI: 0.003805
ITLB LOAD TRANSLATION ACCESS:   29194675  HIT:   29193914  MISS:        761  HIT %:    99.9974  MISS %: 0.00260664   MPKI: 0.003805
ITLB PREFETCH  REQUESTED:          0  ISSUED:          0  USEFUL:          0  USELESS:          0
ITLB USEFUL LOAD PREFETCHES:          0 PREFETCH ISSUED TO LOWER LEVEL:          0  ACCURACY: -nan
ITLB TIMELY PREFETCHES:          0 LATE PREFETCHES: 0 DROPPED PREFETCHES: 0
ITLB PREFETCHES SAME FILL-ORIGIN LEVEL: 0 DIFFERENT FILL-ORIGIN LEVEL: 0
ITLB AVERAGE MISS LATENCY: 10.1301 cycles
ITLB RQ	ACCESS:   32959977	FORWARD:          0	MERGED:    3765098	TO_CACHE:   29194879

DTLB TOTAL     ACCESS:   49329312  HIT:   49302922  MISS:      26390  HIT %:    99.9465  MISS %:  0.0534976   MPKI: 0.13195
DTLB LOAD TRANSLATION ACCESS:   49329312  HIT:   49302922  MISS:      26390  HIT %:    99.9465  MISS %:  0.0534976   MPKI: 0.13195
DTLB PREFETCH  REQUESTED:          0  ISSUED:          0  USEFUL:          0  USELESS:          0
DTLB USEFUL LOAD PREFETCHES:          0 PREFETCH ISSUED TO LOWER LEVEL:          0  ACCURACY: -nan
DTLB TIMELY PREFETCHES:          0 LATE PREFETCHES: 0 DROPPED PREFETCHES: 0
DTLB PREFETCHES SAME FILL-ORIGIN LEVEL: 0 DIFFERENT FILL-ORIGIN LEVEL: 0
DTLB AVERAGE MISS LATENCY: 15.5539 cycles
DTLB RQ	ACCESS:   76408446	FORWARD:          0	MERGED:   27078184	TO_CACHE:   49330262

STLB TOTAL     ACCESS:      49738  HIT:      48661  MISS:       1077  HIT %:    97.8347  MISS %:    2.16535   MPKI: 0.005385
STLB LOAD TRANSLATION ACCESS:      27151  HIT:      26074  MISS:       1077  HIT %:    96.0333  MISS %:     3.9667   MPKI: 0.005385
STLB TRANSLATION FROM L1D PREFETCHER ACCESS:      22587  HIT:      22587  MISS:          0  HIT %:        100  MISS %:          0   MPKI: 0
STLB PREFETCH  REQUESTED:          0  ISSUED:          0  USEFUL:          0  USELESS:          0
STLB USEFUL LOAD PREFETCHES:          0 PREFETCH ISSUED TO LOWER LEVEL:          0  ACCURACY: -nan
STLB TIMELY PREFETCHES:          0 LATE PREFETCHES: 0 DROPPED PREFETCHES: 1500
STLB PREFETCHES SAME FILL-ORIGIN LEVEL: 0 DIFFERENT FILL-ORIGIN LEVEL: 0
STLB AVERAGE MISS LATENCY: 159.843 cycles
STLB RQ	ACCESS:      73846	FORWARD:          0	MERGED:      22608	TO_CACHE:      51238

STLB Hit, L1D data hit: 0
STLB Hit, L2C data hit: 0
STLB Hit, LLC data hit: 0
STLB Hit, LLC data miss: 0
STLB STLB hints to L2: 0
L1D TOTAL     ACCESS:   76442186  HIT:   76428127  MISS:      14059  HIT %:    99.9816  MISS %:  0.0183917   MPKI: 0.070295
L1D LOAD      ACCESS:   33490071  HIT:   33476525  MISS:      13546  HIT %:    99.9596  MISS %:  0.0404478   MPKI: 0.06773
L1D RFO       ACCESS:   42915622  HIT:   42915109  MISS:        513  HIT %:    99.9988  MISS %: 0.00119537   MPKI: 0.002565
L1D PREFETCH  ACCESS:      36493  HIT:      36493  MISS:          0  HIT %:        100  MISS %:          0   MPKI: 0
L1D PREFETCH  REQUESTED:      93390  ISSUED:      93390  USEFUL:          0  USELESS:          0
L1D USEFUL LOAD PREFETCHES:          0 PREFETCH ISSUED TO LOWER LEVEL:       7289  ACCURACY: 0
L1D TIMELY PREFETCHES:          0 LATE PREFETCHES: 0 DROPPED PREFETCHES: 2908
L1D PREFETCHES SAME FILL-ORIGIN LEVEL: 0 DIFFERENT FILL-ORIGIN LEVEL: 7289
L1D AVERAGE MISS LATENCY: 171.612 cycles
L1D RQ	ACCESS:   43336562	FORWARD:          0	MERGED:    8435658	TO_CACHE:   33491612
L1D WQ	ACCESS:   43394697	FORWARD:    1409292	MERGED:     477863	TO_CACHE:   42916834
L1D PQ	ACCESS:      46695	FORWARD:          0	MERGED:          0	TO_CACHE:      46695

L1D UNIQUE REGIONS ACCESSED: 0
L1D REGIONS CONFLICTS: 0
L1D Cross Page Prefetch Requests: 12106
L1D Same Page Prefetch Requests: 101110
L1D ROI Sum of L1D PQ occupancy: 698802
L1D PREFETCHES PUSHED FROM L2C: 0
L1I TOTAL     ACCESS:   32958009  HIT:   32951523  MISS:       6486  HIT %:    99.9803  MISS %:  0.0196796   MPKI: 0.03243
L1I LOAD      ACCESS:   32958009  HIT:   32951523  MISS:       6486  HIT %:    99.9803  MISS %:  0.0196796   MPKI: 0.03243
L1I PREFETCH  REQUESTED:          0  ISSUED:          0  USEFUL:          0  USELESS:          0
L1I USEFUL LOAD PREFETCHES:          0 PREFETCH ISSUED TO LOWER LEVEL:          0  ACCURACY: -nan
L1I TIMELY PREFETCHES:          0 LATE PREFETCHES: 0 DROPPED PREFETCHES: 0
L1I PREFETCHES SAME FILL-ORIGIN LEVEL: 0 DIFFERENT FILL-ORIGIN LEVEL: 0
L1I AVERAGE MISS LATENCY: 19.913 cycles
L1I RQ	ACCESS:   53276305	FORWARD:          0	MERGED:   20316328	TO_CACHE:   32959977

BTB TOTAL     ACCESS:   20873022  HIT:   19824050  MISS:    1048972  HIT %:    94.9745  MISS %:    5.02549   MPKI: 5.24486
BTB BRANCH_DIRECT_JUMP	ACCESS:    4037157  HIT:    4036964  MISS:        193
BTB BRANCH_INDIRECT	ACCESS:    1460816  HIT:     433996  MISS:    1026820
BTB BRANCH_CONDITIONAL	ACCESS:   12481268  HIT:   12480714  MISS:        554
BTB BRANCH_DIRECT_CALL	ACCESS:    1421423  HIT:    1421341  MISS:         82
BTB BRANCH_INDIRECT_CALL	ACCESS:      25468  HIT:      13857  MISS:      11611
BTB BRANCH_RETURN	ACCESS:    1446890  HIT:    1437178  MISS:       9712
BTB BRANCH_OTHER ACCESS:          0  HIT:          0  MISS:          0

L2C TOTAL     ACCESS:      32739  HIT:      18070  MISS:      14669  HIT %:    55.1941  MISS %:    44.8059   MPKI: 0.073345
L2C LOAD      ACCESS:      20032  HIT:       6636  MISS:      13396  HIT %:     33.127  MISS %:     66.873   MPKI: 0.06698
L2C DATA LOAD MPKI: 0.06537
L2C INSTRUCTION LOAD MPKI: 0.00161
L2C RFO       ACCESS:        513  HIT:         85  MISS:        428  HIT %:    16.5692  MISS %:    83.4308   MPKI: 0.00214
L2C PREFETCH  ACCESS:       7280  HIT:       6714  MISS:        566  HIT %:    92.2253  MISS %:    7.77473   MPKI: 0.00283
L2C DATA PREFETCH MPKI: 0.00283
L2C INSTRUCTION PREFETCH MPKI: 0
L2C WRITEBACK ACCESS:       1729  HIT:       1726  MISS:          3  HIT %:    99.8265  MISS %:   0.173511   MPKI: 1.5e-05
L2C LOAD TRANSLATION ACCESS:       1159  HIT:        889  MISS:        270  HIT %:    76.7041  MISS %:    23.2959   MPKI: 0.00135
L2C TRANSLATION FROM L1D PREFETCHER ACCESS:       2026  HIT:       2020  MISS:          6  HIT %:    99.7038  MISS %:    0.29615   MPKI: 3e-05
L2C PREFETCH  REQUESTED:          0  ISSUED:          0  USEFUL:        208  USELESS:        334
L2C USEFUL LOAD PREFETCHES:        208 PREFETCH ISSUED TO LOWER LEVEL:        567  ACCURACY: 36.6843
L2C TIMELY PREFETCHES:        208 LATE PREFETCHES: 1 DROPPED PREFETCHES: 0
L2C PREFETCHES SAME FILL-ORIGIN LEVEL: 567 DIFFERENT FILL-ORIGIN LEVEL: 0
L2C AVERAGE MISS LATENCY: 161.289 cycles
L2C RQ	ACCESS:      23730	FORWARD:          0	MERGED:          0	TO_CACHE:      23730
L2C WQ	ACCESS:       1729	FORWARD:          0	MERGED:          0	TO_CACHE:       1729
L2C PQ	ACCESS:       7289	FORWARD:          0	MERGED:          0	TO_CACHE:       7289

L2C Instructions Evicting Data 222
L2C Translations Evicting Data 169
L2C Data Evicting Data 9349
L2C Instructions Evicting Instructions 4
L2C Translations Evicting Instructions 10
L2C Data Evicting Instructions 426
L2C Instructions Evicting Translations 4
L2C Translations Evicting Translations 4
L2C Data Evicting Translations 180
L2C Dense regions hint from L2: 0
PSCL5 TOTAL     ACCESS:       2577  HIT:       2577  MISS:          0  HIT %:        100  MISS %:          0   MPKI: 0
PSCL5 LOAD TRANSLATION ACCESS:       1077  HIT:       1077  MISS:          0  HIT %:        100  MISS %:          0   MPKI: 0
PSCL5 TRANSLATION FROM L1D PREFETCHER ACCESS:       1500  HIT:       1500  MISS:          0  HIT %:        100  MISS %:          0   MPKI: 0
PSCL5 PREFETCH  REQUESTED:          0  ISSUED:          0  USEFUL:          0  USELESS:          0
PSCL5 USEFUL LOAD PREFETCHES:          0 PREFETCH ISSUED TO LOWER LEVEL:          0  ACCURACY: -nan
PSCL5 TIMELY PREFETCHES:          0 LATE PREFETCHES: 0 DROPPED PREFETCHES: 0
PSCL5 PREFETCHES SAME FILL-ORIGIN LEVEL: 0 DIFFERENT FILL-ORIGIN LEVEL: 0

PSCL4 TOTAL     ACCESS:       2577  HIT:       2577  MISS:          0  HIT %:        100  MISS %:          0   MPKI: 0
PSCL4 LOAD TRANSLATION ACCESS:       1077  HIT:       1077  MISS:          0  HIT %:        100  MISS %:          0   MPKI: 0
PSCL4 TRANSLATION FROM L1D PREFETCHER ACCESS:       1500  HIT:       1500  MISS:          0  HIT %:        100  MISS %:          0   MPKI: 0
PSCL4 PREFETCH  REQUESTED:          0  ISSUED:          0  USEFUL:          0  USELESS:          0
PSCL4 USEFUL LOAD PREFETCHES:          0 PREFETCH ISSUED TO LOWER LEVEL:          0  ACCURACY: -nan
PSCL4 TIMELY PREFETCHES:          0 LATE PREFETCHES: 0 DROPPED PREFETCHES: 0
PSCL4 PREFETCHES SAME FILL-ORIGIN LEVEL: 0 DIFFERENT FILL-ORIGIN LEVEL: 0

PSCL3 TOTAL     ACCESS:       2577  HIT:       2577  MISS:          0  HIT %:        100  MISS %:          0   MPKI: 0
PSCL3 LOAD TRANSLATION ACCESS:       1077  HIT:       1077  MISS:          0  HIT %:        100  MISS %:          0   MPKI: 0
PSCL3 TRANSLATION FROM L1D PREFETCHER ACCESS:       1500  HIT:       1500  MISS:          0  HIT %:        100  MISS %:          0   MPKI: 0
PSCL3 PREFETCH  REQUESTED:          0  ISSUED:          0  USEFUL:          0  USELESS:          0
PSCL3 USEFUL LOAD PREFETCHES:          0 PREFETCH ISSUED TO LOWER LEVEL:          0  ACCURACY: -nan
PSCL3 TIMELY PREFETCHES:          0 LATE PREFETCHES: 0 DROPPED PREFETCHES: 0
PSCL3 PREFETCHES SAME FILL-ORIGIN LEVEL: 0 DIFFERENT FILL-ORIGIN LEVEL: 0

PSCL2 TOTAL     ACCESS:       2051  HIT:       1936  MISS:        115  HIT %:     94.393  MISS %:    5.60702   MPKI: 0.000575
PSCL2 LOAD TRANSLATION ACCESS:       1077  HIT:        962  MISS:        115  HIT %:    89.3222  MISS %:    10.6778   MPKI: 0.000575
PSCL2 TRANSLATION FROM L1D PREFETCHER ACCESS:        974  HIT:        974  MISS:          0  HIT %:        100  MISS %:          0   MPKI: 0
PSCL2 PREFETCH  REQUESTED:          0  ISSUED:          0  USEFUL:          0  USELESS:          0
PSCL2 USEFUL LOAD PREFETCHES:          0 PREFETCH ISSUED TO LOWER LEVEL:          0  ACCURACY: -nan
PSCL2 TIMELY PREFETCHES:          0 LATE PREFETCHES: 0 DROPPED PREFETCHES: 0
PSCL2 PREFETCHES SAME FILL-ORIGIN LEVEL: 0 DIFFERENT FILL-ORIGIN LEVEL: 0

LLC TOTAL     ACCESS:      14832  HIT:        361  MISS:      14471  HIT %:    2.43393  MISS %:    97.5661   MPKI: 0.072355
LLC LOAD      ACCESS:      13395  HIT:        180  MISS:      13215  HIT %:    1.34378  MISS %:    98.6562   MPKI: 0.066075
LLC RFO       ACCESS:        428  HIT:          0  MISS:        428  HIT %:          0  MISS %:        100   MPKI: 0.00214
LLC PREFETCH  ACCESS:        567  HIT:          0  MISS:        567  HIT %:          0  MISS %:        100   MPKI: 0.002835
LLC WRITEBACK ACCESS:        166  HIT:        162  MISS:          4  HIT %:    97.5904  MISS %:    2.40964   MPKI: 2e-05
LLC LOAD TRANSLATION ACCESS:        270  HIT:         19  MISS:        251  HIT %:    7.03704  MISS %:     92.963   MPKI: 0.001255
LLC TRANSLATION FROM L1D PREFETCHER ACCESS:          6  HIT:          0  MISS:          6  HIT %:          0  MISS %:        100   MPKI: 3e-05
LLC PREFETCH  REQUESTED:          0  ISSUED:          0  USEFUL:          1  USELESS:          8
LLC USEFUL LOAD PREFETCHES:          1 PREFETCH ISSUED TO LOWER LEVEL:        567  ACCURACY: 0.176367
LLC TIMELY PREFETCHES:          1 LATE PREFETCHES: 0 DROPPED PREFETCHES: 0
LLC PREFETCHES SAME FILL-ORIGIN LEVEL: 0 DIFFERENT FILL-ORIGIN LEVEL: 0
LLC AVERAGE MISS LATENCY: 132.861 cycles
LLC RQ	ACCESS:      14099	FORWARD:          0	MERGED:          0	TO_CACHE:      14099
LLC WQ	ACCESS:        166	FORWARD:          0	MERGED:          0	TO_CACHE:        166
LLC PQ	ACCESS:        567	FORWARD:          0	MERGED:          0	TO_CACHE:        567

LLC Dense regions hint to LLC: 0

RAW hits: 3170677
Loads Generated: 46507235
Loads sent to L1D: 43336562
Stores Generated: 43394675
Stores sent to L1D: 43394697
Major fault: 0 Minor fault: 1667
Allocated PAGES: 1667

DRAM Statistics
 CHANNEL 0
 RQ ROW_BUFFER_HIT:       5576  ROW_BUFFER_MISS:       8891
 DBUS_CONGESTED:          0
 WQ ROW_BUFFER_HIT:          0  ROW_BUFFER_MISS:          0  FULL:          0

 AVG_CONGESTED_CYCLE: -
 All warmup complete: 2
Channel 0 Bank busy for read cycles: 0
Channel 0 Bank busy for write cycles: 0
Channel 0
Rank 0
0banks busy for read cycles: 292091733
0banks busy for write cycles: 0
1banks busy for read cycles: 1192506
1banks busy for write cycles: 0
2banks busy for read cycles: 161727
2banks busy for write cycles: 0
3banks busy for read cycles: 31553
3banks busy for write cycles: 0
4banks busy for read cycles: 310
4banks busy for write cycles: 0
5banks busy for read cycles: 16
5banks busy for write cycles: 0
6banks busy for read cycles: 56
6banks busy for write cycles: 0
7banks busy for read cycles: 25
7banks busy for write cycles: 0
8banks busy for read cycles: 0
8banks busy for write cycles: 0

CPU 0 Branch Prediction Accuracy: 99.1493% MPKI: 0.83473 Average ROB Occupancy at Mispredict: 79.3908
Branch types
NOT_BRANCH: 171983788 85.9919%
BRANCH_DIRECT_JUMP: 4037157 2.01858%
BRANCH_INDIRECT: 1460816 0.730408%
BRANCH_CONDITIONAL: 19624118 9.81206%
BRANCH_DIRECT_CALL: 1421423 0.710711%
BRANCH_INDIRECT_CALL: 25468 0.012734%
BRANCH_RETURN: 1446890 0.723445%
BRANCH_OTHER: 0 0%

DRAM PAGES: 1048576
Allocated PAGES: 1667
