
*** ChampSim Multicore Out-of-Order Simulator ***

Warmup Instructions: 50000000
Simulation Instructions: 200000000
Number of CPUs: 1
LLC sets: 2048
LLC ways: 16
Off-chip DRAM Size: 4096 MB Channels: 1 Width: 64-bit Data Rate: 6400 MT/s
argv[0]: ./ChampSim/Berti/bin/multiperspective_perceptron8kb-no-vberti-no-no-no-no-no-lru-lru-lru-srrip-drrip-lru-lru-lru-1core-no
argv[1]: -warmup_instructions
argv[2]: 50000000
argv[3]: -simulation_instructions
argv[4]: 200000000
argv[5]: -traces
argv[6]: traces/spec2k17_ten/625.x264_s-20B.champsimtrace.xz
CPU 0 runs traces/spec2k17_ten/625.x264_s-20B.champsimtrace.xz
.xz
CPU 0 Multiperspective perceptron branch predictor
BTB has LRU replacement policy
ITLB has LRU replacement policy
DTLB has LRU replacement policy
STLB has LRU replacement policy
L1I has LRU replacement policy
History Sets: 8
History Ways: 16
BERTI Size: 16
BERTI Stride Size: 16
L1D has LRU replacement policy
Initialize SRRIP state for L2C
Initialize DRRIP state for LLC
Heartbeat CPU 0 instructions: 10000002 cycles: 2660780 heartbeat IPC: 3.7583 cumulative IPC: 3.7583 (Simulation time: 0 hr 4 min 43 sec) 
Heartbeat CPU 0 instructions: 20000003 cycles: 5397007 heartbeat IPC: 3.65467 cumulative IPC: 3.70576 (Simulation time: 0 hr 6 min 33 sec) 
Heartbeat CPU 0 instructions: 30000001 cycles: 8132655 heartbeat IPC: 3.65544 cumulative IPC: 3.68883 (Simulation time: 0 hr 8 min 47 sec) 
Heartbeat CPU 0 instructions: 40000001 cycles: 10869081 heartbeat IPC: 3.6544 cumulative IPC: 3.68016 (Simulation time: 0 hr 10 min 53 sec) 
Heartbeat CPU 0 instructions: 50000003 cycles: 13604212 heartbeat IPC: 3.65613 cumulative IPC: 3.67533 (Simulation time: 0 hr 15 min 55 sec) 

Warmup complete CPU 0 instructions: 50000003 cycles: 13604212 (Simulation time: 0 hr 15 min 55 sec) 

Heartbeat CPU 0 instructions: 60000000 cycles: 25684287 heartbeat IPC: 0.827809 cumulative IPC: 0.827809 (Simulation time: 0 hr 22 min 1 sec) 
Heartbeat CPU 0 instructions: 70000000 cycles: 37705184 heartbeat IPC: 0.831885 cumulative IPC: 0.829842 (Simulation time: 0 hr 27 min 30 sec) 
Heartbeat CPU 0 instructions: 80000000 cycles: 49697097 heartbeat IPC: 0.833895 cumulative IPC: 0.831189 (Simulation time: 0 hr 33 min 2 sec) 
Heartbeat CPU 0 instructions: 90000001 cycles: 63971632 heartbeat IPC: 0.700548 cumulative IPC: 0.794164 (Simulation time: 0 hr 38 min 56 sec) 
Heartbeat CPU 0 instructions: 100000000 cycles: 75567731 heartbeat IPC: 0.862359 cumulative IPC: 0.806926 (Simulation time: 0 hr 44 min 52 sec) 
Heartbeat CPU 0 instructions: 110000000 cycles: 87184754 heartbeat IPC: 0.860806 cumulative IPC: 0.815433 (Simulation time: 0 hr 50 min 31 sec) 
Heartbeat CPU 0 instructions: 120000002 cycles: 100505209 heartbeat IPC: 0.750725 cumulative IPC: 0.805514 (Simulation time: 0 hr 55 min 26 sec) 
Heartbeat CPU 0 instructions: 130000000 cycles: 113765077 heartbeat IPC: 0.754155 cumulative IPC: 0.798715 (Simulation time: 0 hr 59 min 46 sec) 
Heartbeat CPU 0 instructions: 140000002 cycles: 127012109 heartbeat IPC: 0.754886 cumulative IPC: 0.793595 (Simulation time: 1 hr 4 min 49 sec) 
Heartbeat CPU 0 instructions: 150000001 cycles: 140186010 heartbeat IPC: 0.759077 cumulative IPC: 0.790003 (Simulation time: 1 hr 10 min 42 sec) 
Heartbeat CPU 0 instructions: 160000000 cycles: 153411431 heartbeat IPC: 0.75612 cumulative IPC: 0.786798 (Simulation time: 1 hr 13 min 57 sec) 
Heartbeat CPU 0 instructions: 170000000 cycles: 166640843 heartbeat IPC: 0.755892 cumulative IPC: 0.784126 (Simulation time: 1 hr 17 min 21 sec) 
Heartbeat CPU 0 instructions: 180000000 cycles: 180030315 heartbeat IPC: 0.746855 cumulative IPC: 0.781127 (Simulation time: 1 hr 20 min 57 sec) 
Heartbeat CPU 0 instructions: 190000000 cycles: 193443270 heartbeat IPC: 0.745548 cumulative IPC: 0.778474 (Simulation time: 1 hr 25 min 41 sec) 
Heartbeat CPU 0 instructions: 200000000 cycles: 206842323 heartbeat IPC: 0.746321 cumulative IPC: 0.776244 (Simulation time: 1 hr 30 min 46 sec) 
Heartbeat CPU 0 instructions: 210000000 cycles: 220044303 heartbeat IPC: 0.757462 cumulative IPC: 0.775043 (Simulation time: 1 hr 34 min 46 sec) 
Heartbeat CPU 0 instructions: 220000000 cycles: 233194273 heartbeat IPC: 0.760458 cumulative IPC: 0.77417 (Simulation time: 1 hr 38 min 13 sec) 
Heartbeat CPU 0 instructions: 230000000 cycles: 246378593 heartbeat IPC: 0.758477 cumulative IPC: 0.773281 (Simulation time: 1 hr 40 min 13 sec) 
Heartbeat CPU 0 instructions: 240000001 cycles: 259572750 heartbeat IPC: 0.757911 cumulative IPC: 0.772457 (Simulation time: 1 hr 43 min 49 sec) 
Heartbeat CPU 0 instructions: 250000000 cycles: 272706935 heartbeat IPC: 0.761372 cumulative IPC: 0.771895 (Simulation time: 1 hr 47 min 23 sec) 
Finished CPU 0 instructions: 200000001 cycles: 259102726 cumulative IPC: 0.771895 (Simulation time: 1 hr 47 min 23 sec) 

ChampSim completed all CPUs

Region of Interest Statistics

CPU 0 cumulative IPC: 0.771895 instructions: 200000001 cycles: 259102726
ITLB TOTAL     ACCESS:   28246367  HIT:   28246314  MISS:         53  HIT %:    99.9998  MISS %: 0.000187635   MPKI: 0.000265
ITLB LOAD TRANSLATION ACCESS:   28246367  HIT:   28246314  MISS:         53  HIT %:    99.9998  MISS %: 0.000187635   MPKI: 0.000265
ITLB PREFETCH  REQUESTED:          0  ISSUED:          0  USEFUL:          0  USELESS:          0
ITLB USEFUL LOAD PREFETCHES:          0 PREFETCH ISSUED TO LOWER LEVEL:          0  ACCURACY: -nan
ITLB TIMELY PREFETCHES:          0 LATE PREFETCHES: 0 DROPPED PREFETCHES: 0
ITLB PREFETCHES SAME FILL-ORIGIN LEVEL: 0 DIFFERENT FILL-ORIGIN LEVEL: 0
ITLB AVERAGE MISS LATENCY: 223.283 cycles
ITLB RQ	ACCESS:   35879613	FORWARD:          0	MERGED:    7633233	TO_CACHE:   28246380

DTLB TOTAL     ACCESS:   27878990  HIT:   27719440  MISS:     159550  HIT %:    99.4277  MISS %:   0.572295   MPKI: 0.79775
DTLB LOAD TRANSLATION ACCESS:   27878990  HIT:   27719440  MISS:     159550  HIT %:    99.4277  MISS %:   0.572295   MPKI: 0.79775
DTLB PREFETCH  REQUESTED:          0  ISSUED:          0  USEFUL:          0  USELESS:          0
DTLB USEFUL LOAD PREFETCHES:          0 PREFETCH ISSUED TO LOWER LEVEL:          0  ACCURACY: -nan
DTLB TIMELY PREFETCHES:          0 LATE PREFETCHES: 0 DROPPED PREFETCHES: 0
DTLB PREFETCHES SAME FILL-ORIGIN LEVEL: 0 DIFFERENT FILL-ORIGIN LEVEL: 0
DTLB AVERAGE MISS LATENCY: 12.2741 cycles
DTLB RQ	ACCESS:   35207412	FORWARD:          0	MERGED:    7292795	TO_CACHE:   27914617

STLB TOTAL     ACCESS:    6637269  HIT:    6634509  MISS:       2760  HIT %:    99.9584  MISS %:  0.0415834   MPKI: 0.0138
STLB LOAD TRANSLATION ACCESS:     159603  HIT:     156845  MISS:       2758  HIT %:     98.272  MISS %:    1.72804   MPKI: 0.01379
STLB TRANSLATION FROM L1D PREFETCHER ACCESS:    6477666  HIT:    6477664  MISS:          2  HIT %:        100  MISS %: 3.08753e-05   MPKI: 1e-05
STLB PREFETCH  REQUESTED:          0  ISSUED:          0  USEFUL:          2  USELESS:          0
STLB USEFUL LOAD PREFETCHES:          2 PREFETCH ISSUED TO LOWER LEVEL:          0  ACCURACY: inf
STLB TIMELY PREFETCHES:          2 LATE PREFETCHES: 143 DROPPED PREFETCHES: 76393
STLB PREFETCHES SAME FILL-ORIGIN LEVEL: 0 DIFFERENT FILL-ORIGIN LEVEL: 0
STLB AVERAGE MISS LATENCY: 185.966 cycles
STLB RQ	ACCESS:   16771280	FORWARD:          0	MERGED:   10053514	TO_CACHE:    6717766

STLB Hit, L1D data hit: 0
STLB Hit, L2C data hit: 0
STLB Hit, LLC data hit: 0
STLB Hit, LLC data miss: 0
STLB STLB hints to L2: 0
L1D TOTAL     ACCESS:   48980713  HIT:   48652420  MISS:     328293  HIT %:    99.3298  MISS %:    0.67025   MPKI: 1.64146
L1D LOAD      ACCESS:   19534018  HIT:   19409613  MISS:     124405  HIT %:    99.3631  MISS %:   0.636863   MPKI: 0.622025
L1D RFO       ACCESS:   15338595  HIT:   15254447  MISS:      84148  HIT %:    99.4514  MISS %:   0.548603   MPKI: 0.42074
L1D PREFETCH  ACCESS:   14108100  HIT:   13988360  MISS:     119740  HIT %:    99.1513  MISS %:   0.848732   MPKI: 0.5987
L1D PREFETCH  REQUESTED:   36012304  ISSUED:   35309859  USEFUL:     111044  USELESS:       8641
L1D USEFUL LOAD PREFETCHES:     111044 PREFETCH ISSUED TO LOWER LEVEL:    2367246  ACCURACY: 4.69085
L1D TIMELY PREFETCHES:     111044 LATE PREFETCHES: 7167 DROPPED PREFETCHES: 146822
L1D PREFETCHES SAME FILL-ORIGIN LEVEL: 126907 DIFFERENT FILL-ORIGIN LEVEL: 2240339
L1D AVERAGE MISS LATENCY: 121.508 cycles
L1D RQ	ACCESS:   45920706	FORWARD:          0	MERGED:   26279483	TO_CACHE:   19566520
L1D WQ	ACCESS:   15666418	FORWARD:      74703	MERGED:      25526	TO_CACHE:   15640892
L1D PQ	ACCESS:   18698182	FORWARD:          0	MERGED:    2086505	TO_CACHE:   16611677

L1D UNIQUE REGIONS ACCESSED: 0
L1D REGIONS CONFLICTS: 0
L1D Cross Page Prefetch Requests: 9258896
L1D Same Page Prefetch Requests: 12293662
L1D ROI Sum of L1D PQ occupancy: 258708649
L1D PREFETCHES PUSHED FROM L2C: 0
L1I TOTAL     ACCESS:   35842356  HIT:   35771416  MISS:      70940  HIT %:    99.8021  MISS %:   0.197922   MPKI: 0.3547
L1I LOAD      ACCESS:   35842356  HIT:   35771416  MISS:      70940  HIT %:    99.8021  MISS %:   0.197922   MPKI: 0.3547
L1I PREFETCH  REQUESTED:          0  ISSUED:          0  USEFUL:          0  USELESS:          0
L1I USEFUL LOAD PREFETCHES:          0 PREFETCH ISSUED TO LOWER LEVEL:          0  ACCURACY: -nan
L1I TIMELY PREFETCHES:          0 LATE PREFETCHES: 0 DROPPED PREFETCHES: 0
L1I PREFETCHES SAME FILL-ORIGIN LEVEL: 0 DIFFERENT FILL-ORIGIN LEVEL: 0
L1I AVERAGE MISS LATENCY: 18.1126 cycles
L1I RQ	ACCESS:   47270253	FORWARD:          0	MERGED:   11390640	TO_CACHE:   35879613

BTB TOTAL     ACCESS:    6120448  HIT:    5638160  MISS:     482288  HIT %:    92.1201  MISS %:    7.87995   MPKI: 2.41144
BTB BRANCH_DIRECT_JUMP	ACCESS:     153540  HIT:     153384  MISS:        156
BTB BRANCH_INDIRECT	ACCESS:       9706  HIT:       9645  MISS:         61
BTB BRANCH_CONDITIONAL	ACCESS:    4761355  HIT:    4760748  MISS:        607
BTB BRANCH_DIRECT_CALL	ACCESS:     288747  HIT:     288490  MISS:        257
BTB BRANCH_INDIRECT_CALL	ACCESS:     309179  HIT:     305497  MISS:       3682
BTB BRANCH_RETURN	ACCESS:     597921  HIT:     120396  MISS:     477525
BTB BRANCH_OTHER ACCESS:          0  HIT:          0  MISS:          0

L2C TOTAL     ACCESS:    2753423  HIT:    2504500  MISS:     248923  HIT %:    90.9595  MISS %:    9.04049   MPKI: 1.24461
L2C LOAD      ACCESS:     188176  HIT:     146118  MISS:      42058  HIT %:    77.6496  MISS %:    22.3504   MPKI: 0.21029
L2C DATA LOAD MPKI: 0.19725
L2C INSTRUCTION LOAD MPKI: 0.01304
L2C RFO       ACCESS:      84062  HIT:      19786  MISS:      64276  HIT %:    23.5374  MISS %:    76.4626   MPKI: 0.32138
L2C PREFETCH  ACCESS:    2299672  HIT:    2159689  MISS:     139983  HIT %:    93.9129  MISS %:    6.08709   MPKI: 0.699915
L2C DATA PREFETCH MPKI: 0.699915
L2C INSTRUCTION PREFETCH MPKI: 0
L2C WRITEBACK ACCESS:     102145  HIT:     100112  MISS:       2033  HIT %:    98.0097  MISS %:    1.99031   MPKI: 0.010165
L2C LOAD TRANSLATION ACCESS:       2767  HIT:       2378  MISS:        389  HIT %:    85.9415  MISS %:    14.0585   MPKI: 0.001945
L2C TRANSLATION FROM L1D PREFETCHER ACCESS:      76601  HIT:      76417  MISS:        184  HIT %:    99.7598  MISS %:   0.240206   MPKI: 0.00092
L2C PREFETCH  REQUESTED:          0  ISSUED:          0  USEFUL:      24599  USELESS:     113669
L2C USEFUL LOAD PREFETCHES:      24599 PREFETCH ISSUED TO LOWER LEVEL:     144591  ACCURACY: 17.0128
L2C TIMELY PREFETCHES:      24599 LATE PREFETCHES: 4608 DROPPED PREFETCHES: 0
L2C PREFETCHES SAME FILL-ORIGIN LEVEL: 95188 DIFFERENT FILL-ORIGIN LEVEL: 0
L2C AVERAGE MISS LATENCY: 207.325 cycles
L2C RQ	ACCESS:     351694	FORWARD:          0	MERGED:          0	TO_CACHE:     351606
L2C WQ	ACCESS:     102145	FORWARD:         88	MERGED:          0	TO_CACHE:     102145
L2C PQ	ACCESS:    2366151	FORWARD:          0	MERGED:        139	TO_CACHE:    2366012

L2C Instructions Evicting Data 2468
L2C Translations Evicting Data 555
L2C Data Evicting Data 239926
L2C Instructions Evicting Instructions 122
L2C Translations Evicting Instructions 18
L2C Data Evicting Instructions 3215
L2C Instructions Evicting Translations 18
L2C Translations Evicting Translations 0
L2C Data Evicting Translations 568
L2C Dense regions hint from L2: 0
PSCL5 TOTAL     ACCESS:      79296  HIT:      79296  MISS:          0  HIT %:        100  MISS %:          0   MPKI: 0
PSCL5 LOAD TRANSLATION ACCESS:       2758  HIT:       2758  MISS:          0  HIT %:        100  MISS %:          0   MPKI: 0
PSCL5 TRANSLATION FROM L1D PREFETCHER ACCESS:      76538  HIT:      76538  MISS:          0  HIT %:        100  MISS %:          0   MPKI: 0
PSCL5 PREFETCH  REQUESTED:          0  ISSUED:          0  USEFUL:          0  USELESS:          0
PSCL5 USEFUL LOAD PREFETCHES:          0 PREFETCH ISSUED TO LOWER LEVEL:          0  ACCURACY: -nan
PSCL5 TIMELY PREFETCHES:          0 LATE PREFETCHES: 0 DROPPED PREFETCHES: 0
PSCL5 PREFETCHES SAME FILL-ORIGIN LEVEL: 0 DIFFERENT FILL-ORIGIN LEVEL: 0

PSCL4 TOTAL     ACCESS:      79296  HIT:      79296  MISS:          0  HIT %:        100  MISS %:          0   MPKI: 0
PSCL4 LOAD TRANSLATION ACCESS:       2758  HIT:       2758  MISS:          0  HIT %:        100  MISS %:          0   MPKI: 0
PSCL4 TRANSLATION FROM L1D PREFETCHER ACCESS:      76538  HIT:      76538  MISS:          0  HIT %:        100  MISS %:          0   MPKI: 0
PSCL4 PREFETCH  REQUESTED:          0  ISSUED:          0  USEFUL:          0  USELESS:          0
PSCL4 USEFUL LOAD PREFETCHES:          0 PREFETCH ISSUED TO LOWER LEVEL:          0  ACCURACY: -nan
PSCL4 TIMELY PREFETCHES:          0 LATE PREFETCHES: 0 DROPPED PREFETCHES: 0
PSCL4 PREFETCHES SAME FILL-ORIGIN LEVEL: 0 DIFFERENT FILL-ORIGIN LEVEL: 0

PSCL3 TOTAL     ACCESS:      79296  HIT:      79296  MISS:          0  HIT %:        100  MISS %:          0   MPKI: 0
PSCL3 LOAD TRANSLATION ACCESS:       2758  HIT:       2758  MISS:          0  HIT %:        100  MISS %:          0   MPKI: 0
PSCL3 TRANSLATION FROM L1D PREFETCHER ACCESS:      76538  HIT:      76538  MISS:          0  HIT %:        100  MISS %:          0   MPKI: 0
PSCL3 PREFETCH  REQUESTED:          0  ISSUED:          0  USEFUL:          0  USELESS:          0
PSCL3 USEFUL LOAD PREFETCHES:          0 PREFETCH ISSUED TO LOWER LEVEL:          0  ACCURACY: -nan
PSCL3 TIMELY PREFETCHES:          0 LATE PREFETCHES: 0 DROPPED PREFETCHES: 0
PSCL3 PREFETCHES SAME FILL-ORIGIN LEVEL: 0 DIFFERENT FILL-ORIGIN LEVEL: 0

PSCL2 TOTAL     ACCESS:      79233  HIT:      79212  MISS:         21  HIT %:    99.9735  MISS %:  0.0265041   MPKI: 0.000105
PSCL2 LOAD TRANSLATION ACCESS:       2758  HIT:       2737  MISS:         21  HIT %:    99.2386  MISS %:   0.761421   MPKI: 0.000105
PSCL2 TRANSLATION FROM L1D PREFETCHER ACCESS:      76475  HIT:      76475  MISS:          0  HIT %:        100  MISS %:          0   MPKI: 0
PSCL2 PREFETCH  REQUESTED:          0  ISSUED:          0  USEFUL:          0  USELESS:          0
PSCL2 USEFUL LOAD PREFETCHES:          0 PREFETCH ISSUED TO LOWER LEVEL:          0  ACCURACY: -nan
PSCL2 TIMELY PREFETCHES:          0 LATE PREFETCHES: 0 DROPPED PREFETCHES: 0
PSCL2 PREFETCHES SAME FILL-ORIGIN LEVEL: 0 DIFFERENT FILL-ORIGIN LEVEL: 0

LLC TOTAL     ACCESS:     330977  HIT:     127077  MISS:     203900  HIT %:    38.3945  MISS %:    61.6055   MPKI: 1.0195
LLC LOAD      ACCESS:      37450  HIT:       3247  MISS:      34203  HIT %:    8.67023  MISS %:    91.3298   MPKI: 0.171015
LLC RFO       ACCESS:      64276  HIT:        624  MISS:      63652  HIT %:   0.970813  MISS %:    99.0292   MPKI: 0.31826
LLC PREFETCH  ACCESS:     144591  HIT:      41880  MISS:     102711  HIT %:    28.9645  MISS %:    71.0355   MPKI: 0.513555
LLC WRITEBACK ACCESS:      84087  HIT:      81247  MISS:       2840  HIT %:    96.6225  MISS %:    3.37745   MPKI: 0.0142
LLC LOAD TRANSLATION ACCESS:        389  HIT:         52  MISS:        337  HIT %:    13.3676  MISS %:    86.6324   MPKI: 0.001685
LLC TRANSLATION FROM L1D PREFETCHER ACCESS:        184  HIT:         27  MISS:        157  HIT %:    14.6739  MISS %:    85.3261   MPKI: 0.000785
LLC PREFETCH  REQUESTED:          0  ISSUED:          0  USEFUL:        878  USELESS:      95887
LLC USEFUL LOAD PREFETCHES:        878 PREFETCH ISSUED TO LOWER LEVEL:     102711  ACCURACY: 0.854826
LLC TIMELY PREFETCHES:        878 LATE PREFETCHES: 0 DROPPED PREFETCHES: 0
LLC PREFETCHES SAME FILL-ORIGIN LEVEL: 0 DIFFERENT FILL-ORIGIN LEVEL: 0
LLC AVERAGE MISS LATENCY: 219.643 cycles
LLC RQ	ACCESS:     102299	FORWARD:          0	MERGED:          0	TO_CACHE:     102299
LLC WQ	ACCESS:      84087	FORWARD:          0	MERGED:          0	TO_CACHE:      84087
LLC PQ	ACCESS:     144591	FORWARD:          0	MERGED:          0	TO_CACHE:     144591

LLC Dense regions hint to LLC: 0

RAW hits: 396195
Loads Generated: 46316901
Loads sent to L1D: 45920706
Stores Generated: 15666406
Stores sent to L1D: 15666418
Major fault: 0 Minor fault: 4694
Allocated PAGES: 4694

DRAM Statistics
 CHANNEL 0
 RQ ROW_BUFFER_HIT:      80766  ROW_BUFFER_MISS:     120268
 DBUS_CONGESTED:         91
 WQ ROW_BUFFER_HIT:       9442  ROW_BUFFER_MISS:      74001  FULL:          0

 AVG_CONGESTED_CYCLE: 4
 All warmup complete: 2
Channel 0 Bank busy for read cycles: 0
Channel 0 Bank busy for write cycles: 0
Channel 0
Rank 0
0banks busy for read cycles: 244574355
0banks busy for write cycles: 21386
1banks busy for read cycles: 4591802
1banks busy for write cycles: 2541565
2banks busy for read cycles: 2339785
2banks busy for write cycles: 631593
3banks busy for read cycles: 867229
3banks busy for write cycles: 363509
4banks busy for read cycles: 490717
4banks busy for write cycles: 249854
5banks busy for read cycles: 248058
5banks busy for write cycles: 153054
6banks busy for read cycles: 245304
6banks busy for write cycles: 102352
7banks busy for read cycles: 240203
7banks busy for write cycles: 108099
8banks busy for read cycles: 542647
8banks busy for write cycles: 791215

CPU 0 Branch Prediction Accuracy: 99.702% MPKI: 0.082015 Average ROB Occupancy at Mispredict: 29.8639
Branch types
NOT_BRANCH: 193136629 96.5683%
BRANCH_DIRECT_JUMP: 153540 0.07677%
BRANCH_INDIRECT: 9706 0.004853%
BRANCH_CONDITIONAL: 5503927 2.75196%
BRANCH_DIRECT_CALL: 288747 0.144373%
BRANCH_INDIRECT_CALL: 309179 0.154589%
BRANCH_RETURN: 597921 0.29896%
BRANCH_OTHER: 0 0%

DRAM PAGES: 1048576
Allocated PAGES: 4694
