
*** ChampSim Multicore Out-of-Order Simulator ***

Warmup Instructions: 50000000
Simulation Instructions: 200000000
Number of CPUs: 1
LLC sets: 2048
LLC ways: 16
Off-chip DRAM Size: 4096 MB Channels: 1 Width: 64-bit Data Rate: 6400 MT/s
argv[0]: ./ChampSim/Berti/bin/multiperspective_perceptron8kb-no-vberti-no-no-no-no-no-lru-lru-lru-srrip-drrip-lru-lru-lru-1core-no
argv[1]: -warmup_instructions
argv[2]: 50000000
argv[3]: -simulation_instructions
argv[4]: 200000000
argv[5]: -traces
argv[6]: traces/spec2k17_ten/625.x264_s-33B.champsimtrace.xz
CPU 0 runs traces/spec2k17_ten/625.x264_s-33B.champsimtrace.xz
.xz
CPU 0 Multiperspective perceptron branch predictor
BTB has LRU replacement policy
ITLB has LRU replacement policy
DTLB has LRU replacement policy
STLB has LRU replacement policy
L1I has LRU replacement policy
History Sets: 8
History Ways: 16
BERTI Size: 16
BERTI Stride Size: 16
L1D has LRU replacement policy
Initialize SRRIP state for L2C
Initialize DRRIP state for LLC
Heartbeat CPU 0 instructions: 10000001 cycles: 2707519 heartbeat IPC: 3.69342 cumulative IPC: 3.69342 (Simulation time: 0 hr 5 min 2 sec) 
Heartbeat CPU 0 instructions: 20000001 cycles: 5416270 heartbeat IPC: 3.69174 cumulative IPC: 3.69258 (Simulation time: 0 hr 13 min 18 sec) 
Heartbeat CPU 0 instructions: 30000000 cycles: 8109727 heartbeat IPC: 3.7127 cumulative IPC: 3.69926 (Simulation time: 0 hr 17 min 28 sec) 
Heartbeat CPU 0 instructions: 40000000 cycles: 10797941 heartbeat IPC: 3.71994 cumulative IPC: 3.70441 (Simulation time: 0 hr 22 min 1 sec) 
Heartbeat CPU 0 instructions: 50000001 cycles: 13484491 heartbeat IPC: 3.72225 cumulative IPC: 3.70796 (Simulation time: 0 hr 27 min 1 sec) 

Warmup complete CPU 0 instructions: 50000001 cycles: 13484491 (Simulation time: 0 hr 27 min 1 sec) 

Heartbeat CPU 0 instructions: 60000000 cycles: 26433648 heartbeat IPC: 0.772251 cumulative IPC: 0.772251 (Simulation time: 0 hr 30 min 39 sec) 
Heartbeat CPU 0 instructions: 70000002 cycles: 39476600 heartbeat IPC: 0.766698 cumulative IPC: 0.769464 (Simulation time: 0 hr 34 min 30 sec) 
Heartbeat CPU 0 instructions: 80000000 cycles: 52492276 heartbeat IPC: 0.768304 cumulative IPC: 0.769077 (Simulation time: 0 hr 38 min 6 sec) 
Heartbeat CPU 0 instructions: 90000002 cycles: 65525078 heartbeat IPC: 0.767295 cumulative IPC: 0.768631 (Simulation time: 0 hr 41 min 30 sec) 
Heartbeat CPU 0 instructions: 100000001 cycles: 78635912 heartbeat IPC: 0.762728 cumulative IPC: 0.767443 (Simulation time: 0 hr 45 min 46 sec) 
Heartbeat CPU 0 instructions: 110000000 cycles: 91870209 heartbeat IPC: 0.755612 cumulative IPC: 0.765446 (Simulation time: 0 hr 50 min 41 sec) 
Heartbeat CPU 0 instructions: 120000002 cycles: 104726315 heartbeat IPC: 0.777841 cumulative IPC: 0.767192 (Simulation time: 0 hr 55 min 49 sec) 
Heartbeat CPU 0 instructions: 130000003 cycles: 117426396 heartbeat IPC: 0.787397 cumulative IPC: 0.769661 (Simulation time: 1 hr 1 min 11 sec) 
Heartbeat CPU 0 instructions: 140000000 cycles: 130110294 heartbeat IPC: 0.788401 cumulative IPC: 0.771699 (Simulation time: 1 hr 6 min 33 sec) 
Heartbeat CPU 0 instructions: 150000001 cycles: 142840591 heartbeat IPC: 0.785528 cumulative IPC: 0.77306 (Simulation time: 1 hr 12 min 2 sec) 
Heartbeat CPU 0 instructions: 160000000 cycles: 155576487 heartbeat IPC: 0.785182 cumulative IPC: 0.774146 (Simulation time: 1 hr 15 min 21 sec) 
Heartbeat CPU 0 instructions: 170000002 cycles: 168420748 heartbeat IPC: 0.778558 cumulative IPC: 0.774512 (Simulation time: 1 hr 18 min 27 sec) 
Heartbeat CPU 0 instructions: 180000001 cycles: 181136918 heartbeat IPC: 0.7864 cumulative IPC: 0.775414 (Simulation time: 1 hr 23 min 2 sec) 
Heartbeat CPU 0 instructions: 190000002 cycles: 193618861 heartbeat IPC: 0.801157 cumulative IPC: 0.777198 (Simulation time: 1 hr 29 min 24 sec) 
Heartbeat CPU 0 instructions: 200000000 cycles: 206049386 heartbeat IPC: 0.804471 cumulative IPC: 0.778958 (Simulation time: 1 hr 33 min 41 sec) 
Heartbeat CPU 0 instructions: 210000000 cycles: 218521158 heartbeat IPC: 0.801811 cumulative IPC: 0.780348 (Simulation time: 1 hr 37 min 3 sec) 
Heartbeat CPU 0 instructions: 220000000 cycles: 231006689 heartbeat IPC: 0.800927 cumulative IPC: 0.781529 (Simulation time: 1 hr 39 min 29 sec) 
Heartbeat CPU 0 instructions: 230000000 cycles: 243760170 heartbeat IPC: 0.7841 cumulative IPC: 0.781672 (Simulation time: 1 hr 42 min 30 sec) 
Heartbeat CPU 0 instructions: 240000003 cycles: 256678126 heartbeat IPC: 0.774117 cumulative IPC: 0.78127 (Simulation time: 1 hr 46 min 11 sec) 
Heartbeat CPU 0 instructions: 250000000 cycles: 269511980 heartbeat IPC: 0.779189 cumulative IPC: 0.781166 (Simulation time: 1 hr 51 min 27 sec) 
Finished CPU 0 instructions: 200000001 cycles: 256027490 cumulative IPC: 0.781166 (Simulation time: 1 hr 51 min 27 sec) 

ChampSim completed all CPUs

Region of Interest Statistics

CPU 0 cumulative IPC: 0.781166 instructions: 200000001 cycles: 256027490
ITLB TOTAL     ACCESS:   28085871  HIT:   28085870  MISS:          1  HIT %:        100  MISS %: 3.56051e-06   MPKI: 5e-06
ITLB LOAD TRANSLATION ACCESS:   28085871  HIT:   28085870  MISS:          1  HIT %:        100  MISS %: 3.56051e-06   MPKI: 5e-06
ITLB PREFETCH  REQUESTED:          0  ISSUED:          0  USEFUL:          0  USELESS:          0
ITLB USEFUL LOAD PREFETCHES:          0 PREFETCH ISSUED TO LOWER LEVEL:          0  ACCURACY: -nan
ITLB TIMELY PREFETCHES:          0 LATE PREFETCHES: 0 DROPPED PREFETCHES: 0
ITLB PREFETCHES SAME FILL-ORIGIN LEVEL: 0 DIFFERENT FILL-ORIGIN LEVEL: 0
ITLB AVERAGE MISS LATENCY: 320 cycles
ITLB RQ	ACCESS:   35404252	FORWARD:          0	MERGED:    7318382	TO_CACHE:   28085870

DTLB TOTAL     ACCESS:   26660040  HIT:   26641587  MISS:      18453  HIT %:    99.9308  MISS %:   0.069216   MPKI: 0.092265
DTLB LOAD TRANSLATION ACCESS:   26660040  HIT:   26641587  MISS:      18453  HIT %:    99.9308  MISS %:   0.069216   MPKI: 0.092265
DTLB PREFETCH  REQUESTED:          0  ISSUED:          0  USEFUL:          0  USELESS:          0
DTLB USEFUL LOAD PREFETCHES:          0 PREFETCH ISSUED TO LOWER LEVEL:          0  ACCURACY: -nan
DTLB TIMELY PREFETCHES:          0 LATE PREFETCHES: 0 DROPPED PREFETCHES: 0
DTLB PREFETCHES SAME FILL-ORIGIN LEVEL: 0 DIFFERENT FILL-ORIGIN LEVEL: 0
DTLB AVERAGE MISS LATENCY: 16.7578 cycles
DTLB RQ	ACCESS:   32620909	FORWARD:          0	MERGED:    5959985	TO_CACHE:   26660924

STLB TOTAL     ACCESS:    4787840  HIT:    4786855  MISS:        985  HIT %:    99.9794  MISS %:   0.020573   MPKI: 0.004925
STLB LOAD TRANSLATION ACCESS:      18454  HIT:      17469  MISS:        985  HIT %:    94.6624  MISS %:     5.3376   MPKI: 0.004925
STLB TRANSLATION FROM L1D PREFETCHER ACCESS:    4769386  HIT:    4769386  MISS:          0  HIT %:        100  MISS %:          0   MPKI: 0
STLB PREFETCH  REQUESTED:          0  ISSUED:          0  USEFUL:          0  USELESS:          0
STLB USEFUL LOAD PREFETCHES:          0 PREFETCH ISSUED TO LOWER LEVEL:          0  ACCURACY: -nan
STLB TIMELY PREFETCHES:          0 LATE PREFETCHES: 6 DROPPED PREFETCHES: 64219
STLB PREFETCHES SAME FILL-ORIGIN LEVEL: 0 DIFFERENT FILL-ORIGIN LEVEL: 0
STLB AVERAGE MISS LATENCY: 145.215 cycles
STLB RQ	ACCESS:   12060389	FORWARD:          0	MERGED:    7206043	TO_CACHE:    4854346

STLB Hit, L1D data hit: 0
STLB Hit, L2C data hit: 0
STLB Hit, LLC data hit: 0
STLB Hit, LLC data miss: 0
STLB STLB hints to L2: 0
L1D TOTAL     ACCESS:   43121073  HIT:   43041524  MISS:      79549  HIT %:    99.8155  MISS %:   0.184478   MPKI: 0.397745
L1D LOAD      ACCESS:   18489691  HIT:   18443471  MISS:      46220  HIT %:      99.75  MISS %:   0.249977   MPKI: 0.2311
L1D RFO       ACCESS:   14115843  HIT:   14113557  MISS:       2286  HIT %:    99.9838  MISS %:  0.0161946   MPKI: 0.01143
L1D PREFETCH  ACCESS:   10515539  HIT:   10484496  MISS:      31043  HIT %:    99.7048  MISS %:   0.295211   MPKI: 0.155215
L1D PREFETCH  REQUESTED:   25925436  ISSUED:   25736893  USEFUL:      25325  USELESS:       5656
L1D USEFUL LOAD PREFETCHES:      25325 PREFETCH ISSUED TO LOWER LEVEL:    1415664  ACCURACY: 1.78891
L1D TIMELY PREFETCHES:      25325 LATE PREFETCHES: 2035 DROPPED PREFETCHES: 134263
L1D PREFETCHES SAME FILL-ORIGIN LEVEL: 33088 DIFFERENT FILL-ORIGIN LEVEL: 1382576
L1D AVERAGE MISS LATENCY: 76.1727 cycles
L1D RQ	ACCESS:   47054440	FORWARD:          0	MERGED:   28459988	TO_CACHE:   18503866
L1D WQ	ACCESS:   14133461	FORWARD:      90586	MERGED:      16418	TO_CACHE:   14117043
L1D PQ	ACCESS:   13694958	FORWARD:          0	MERGED:    1653023	TO_CACHE:   12041935

L1D UNIQUE REGIONS ACCESSED: 0
L1D REGIONS CONFLICTS: 0
L1D Cross Page Prefetch Requests: 8094347
L1D Same Page Prefetch Requests: 9889146
L1D ROI Sum of L1D PQ occupancy: 181097426
L1D PREFETCHES PUSHED FROM L2C: 0
L1I TOTAL     ACCESS:   35404237  HIT:   35404192  MISS:         45  HIT %:    99.9999  MISS %: 0.000127103   MPKI: 0.000225
L1I LOAD      ACCESS:   35404237  HIT:   35404192  MISS:         45  HIT %:    99.9999  MISS %: 0.000127103   MPKI: 0.000225
L1I PREFETCH  REQUESTED:          0  ISSUED:          0  USEFUL:          0  USELESS:          0
L1I USEFUL LOAD PREFETCHES:          0 PREFETCH ISSUED TO LOWER LEVEL:          0  ACCURACY: -nan
L1I TIMELY PREFETCHES:          0 LATE PREFETCHES: 0 DROPPED PREFETCHES: 0
L1I PREFETCHES SAME FILL-ORIGIN LEVEL: 0 DIFFERENT FILL-ORIGIN LEVEL: 0
L1I AVERAGE MISS LATENCY: 205.867 cycles
L1I RQ	ACCESS:   47739128	FORWARD:          0	MERGED:   12334876	TO_CACHE:   35404252

BTB TOTAL     ACCESS:    7229807  HIT:    6731727  MISS:     498080  HIT %:    93.1107  MISS %:    6.88926   MPKI: 2.4904
BTB BRANCH_DIRECT_JUMP	ACCESS:     158358  HIT:     158332  MISS:         26
BTB BRANCH_INDIRECT	ACCESS:      10447  HIT:      10446  MISS:          1
BTB BRANCH_CONDITIONAL	ACCESS:    5888112  HIT:    5888018  MISS:         94
BTB BRANCH_DIRECT_CALL	ACCESS:     294615  HIT:     294595  MISS:         20
BTB BRANCH_INDIRECT_CALL	ACCESS:     291830  HIT:     291778  MISS:         52
BTB BRANCH_RETURN	ACCESS:     586445  HIT:      88558  MISS:     497887
BTB BRANCH_OTHER ACCESS:          0  HIT:          0  MISS:          0

L2C TOTAL     ACCESS:    1497965  HIT:    1429472  MISS:      68493  HIT %:    95.4276  MISS %:     4.5724   MPKI: 0.342465
L2C LOAD      ACCESS:      44230  HIT:      19288  MISS:      24942  HIT %:    43.6084  MISS %:    56.3916   MPKI: 0.12471
L2C DATA LOAD MPKI: 0.124485
L2C INSTRUCTION LOAD MPKI: 0.000225
L2C RFO       ACCESS:       2286  HIT:         83  MISS:       2203  HIT %:     3.6308  MISS %:    96.3692   MPKI: 0.011015
L2C PREFETCH  ACCESS:    1383919  HIT:    1342930  MISS:      40989  HIT %:    97.0382  MISS %:    2.96181   MPKI: 0.204945
L2C DATA PREFETCH MPKI: 0.204945
L2C INSTRUCTION PREFETCH MPKI: 0
L2C WRITEBACK ACCESS:       2320  HIT:       2165  MISS:        155  HIT %:     93.319  MISS %:    6.68103   MPKI: 0.000775
L2C LOAD TRANSLATION ACCESS:        985  HIT:        858  MISS:        127  HIT %:    87.1066  MISS %:    12.8934   MPKI: 0.000635
L2C TRANSLATION FROM L1D PREFETCHER ACCESS:      64225  HIT:      64148  MISS:         77  HIT %:    99.8801  MISS %:   0.119891   MPKI: 0.000385
L2C PREFETCH  REQUESTED:          0  ISSUED:          0  USEFUL:      14770  USELESS:      28693
L2C USEFUL LOAD PREFETCHES:      14770 PREFETCH ISSUED TO LOWER LEVEL:      45182  ACCURACY: 32.69
L2C TIMELY PREFETCHES:      14770 LATE PREFETCHES: 4193 DROPPED PREFETCHES: 0
L2C PREFETCHES SAME FILL-ORIGIN LEVEL: 38829 DIFFERENT FILL-ORIGIN LEVEL: 0
L2C AVERAGE MISS LATENCY: 138.741 cycles
L2C RQ	ACCESS:     111726	FORWARD:          0	MERGED:          0	TO_CACHE:     111726
L2C WQ	ACCESS:       2320	FORWARD:          0	MERGED:          0	TO_CACHE:       2320
L2C PQ	ACCESS:    1415651	FORWARD:          0	MERGED:         19	TO_CACHE:    1415632

L2C Instructions Evicting Data 45
L2C Translations Evicting Data 204
L2C Data Evicting Data 67846
L2C Instructions Evicting Instructions 0
L2C Translations Evicting Instructions 0
L2C Data Evicting Instructions 53
L2C Instructions Evicting Translations 0
L2C Translations Evicting Translations 0
L2C Data Evicting Translations 190
L2C Dense regions hint from L2: 0
PSCL5 TOTAL     ACCESS:      65210  HIT:      65210  MISS:          0  HIT %:        100  MISS %:          0   MPKI: 0
PSCL5 LOAD TRANSLATION ACCESS:        985  HIT:        985  MISS:          0  HIT %:        100  MISS %:          0   MPKI: 0
PSCL5 TRANSLATION FROM L1D PREFETCHER ACCESS:      64225  HIT:      64225  MISS:          0  HIT %:        100  MISS %:          0   MPKI: 0
PSCL5 PREFETCH  REQUESTED:          0  ISSUED:          0  USEFUL:          0  USELESS:          0
PSCL5 USEFUL LOAD PREFETCHES:          0 PREFETCH ISSUED TO LOWER LEVEL:          0  ACCURACY: -nan
PSCL5 TIMELY PREFETCHES:          0 LATE PREFETCHES: 0 DROPPED PREFETCHES: 0
PSCL5 PREFETCHES SAME FILL-ORIGIN LEVEL: 0 DIFFERENT FILL-ORIGIN LEVEL: 0

PSCL4 TOTAL     ACCESS:      65210  HIT:      65210  MISS:          0  HIT %:        100  MISS %:          0   MPKI: 0
PSCL4 LOAD TRANSLATION ACCESS:        985  HIT:        985  MISS:          0  HIT %:        100  MISS %:          0   MPKI: 0
PSCL4 TRANSLATION FROM L1D PREFETCHER ACCESS:      64225  HIT:      64225  MISS:          0  HIT %:        100  MISS %:          0   MPKI: 0
PSCL4 PREFETCH  REQUESTED:          0  ISSUED:          0  USEFUL:          0  USELESS:          0
PSCL4 USEFUL LOAD PREFETCHES:          0 PREFETCH ISSUED TO LOWER LEVEL:          0  ACCURACY: -nan
PSCL4 TIMELY PREFETCHES:          0 LATE PREFETCHES: 0 DROPPED PREFETCHES: 0
PSCL4 PREFETCHES SAME FILL-ORIGIN LEVEL: 0 DIFFERENT FILL-ORIGIN LEVEL: 0

PSCL3 TOTAL     ACCESS:      65210  HIT:      65210  MISS:          0  HIT %:        100  MISS %:          0   MPKI: 0
PSCL3 LOAD TRANSLATION ACCESS:        985  HIT:        985  MISS:          0  HIT %:        100  MISS %:          0   MPKI: 0
PSCL3 TRANSLATION FROM L1D PREFETCHER ACCESS:      64225  HIT:      64225  MISS:          0  HIT %:        100  MISS %:          0   MPKI: 0
PSCL3 PREFETCH  REQUESTED:          0  ISSUED:          0  USEFUL:          0  USELESS:          0
PSCL3 USEFUL LOAD PREFETCHES:          0 PREFETCH ISSUED TO LOWER LEVEL:          0  ACCURACY: -nan
PSCL3 TIMELY PREFETCHES:          0 LATE PREFETCHES: 0 DROPPED PREFETCHES: 0
PSCL3 PREFETCHES SAME FILL-ORIGIN LEVEL: 0 DIFFERENT FILL-ORIGIN LEVEL: 0

PSCL2 TOTAL     ACCESS:      65132  HIT:      65121  MISS:         11  HIT %:    99.9831  MISS %:  0.0168888   MPKI: 5.5e-05
PSCL2 LOAD TRANSLATION ACCESS:        985  HIT:        974  MISS:         11  HIT %:    98.8832  MISS %:    1.11675   MPKI: 5.5e-05
PSCL2 TRANSLATION FROM L1D PREFETCHER ACCESS:      64147  HIT:      64147  MISS:          0  HIT %:        100  MISS %:          0   MPKI: 0
PSCL2 PREFETCH  REQUESTED:          0  ISSUED:          0  USEFUL:          0  USELESS:          0
PSCL2 USEFUL LOAD PREFETCHES:          0 PREFETCH ISSUED TO LOWER LEVEL:          0  ACCURACY: -nan
PSCL2 TIMELY PREFETCHES:          0 LATE PREFETCHES: 0 DROPPED PREFETCHES: 0
PSCL2 PREFETCHES SAME FILL-ORIGIN LEVEL: 0 DIFFERENT FILL-ORIGIN LEVEL: 0

LLC TOTAL     ACCESS:      70598  HIT:       6840  MISS:      63758  HIT %:    9.68866  MISS %:    90.3113   MPKI: 0.31879
LLC LOAD      ACCESS:      20749  HIT:        609  MISS:      20140  HIT %:    2.93508  MISS %:    97.0649   MPKI: 0.1007
LLC RFO       ACCESS:       2203  HIT:         16  MISS:       2187  HIT %:   0.726282  MISS %:    99.2737   MPKI: 0.010935
LLC PREFETCH  ACCESS:      45182  HIT:       3982  MISS:      41200  HIT %:    8.81324  MISS %:    91.1868   MPKI: 0.206
LLC WRITEBACK ACCESS:       2260  HIT:       2211  MISS:         49  HIT %:    97.8319  MISS %:    2.16814   MPKI: 0.000245
LLC LOAD TRANSLATION ACCESS:        127  HIT:         18  MISS:        109  HIT %:    14.1732  MISS %:    85.8268   MPKI: 0.000545
LLC TRANSLATION FROM L1D PREFETCHER ACCESS:         77  HIT:          4  MISS:         73  HIT %:    5.19481  MISS %:    94.8052   MPKI: 0.000365
LLC PREFETCH  REQUESTED:          0  ISSUED:          0  USEFUL:        254  USELESS:      33237
LLC USEFUL LOAD PREFETCHES:        254 PREFETCH ISSUED TO LOWER LEVEL:      41200  ACCURACY: 0.616505
LLC TIMELY PREFETCHES:        254 LATE PREFETCHES: 0 DROPPED PREFETCHES: 0
LLC PREFETCHES SAME FILL-ORIGIN LEVEL: 0 DIFFERENT FILL-ORIGIN LEVEL: 0
LLC AVERAGE MISS LATENCY: 120.991 cycles
LLC RQ	ACCESS:      23156	FORWARD:          0	MERGED:          0	TO_CACHE:      23156
LLC WQ	ACCESS:       2260	FORWARD:          0	MERGED:          0	TO_CACHE:       2260
LLC PQ	ACCESS:      45182	FORWARD:          0	MERGED:          0	TO_CACHE:      45182

LLC Dense regions hint to LLC: 0

RAW hits: 533734
Loads Generated: 47588174
Loads sent to L1D: 47054440
Stores Generated: 14133446
Stores sent to L1D: 14133461
Major fault: 0 Minor fault: 1314
Allocated PAGES: 1314

DRAM Statistics
 CHANNEL 0
 RQ ROW_BUFFER_HIT:      35571  ROW_BUFFER_MISS:      28138
 DBUS_CONGESTED:         27
 WQ ROW_BUFFER_HIT:        109  ROW_BUFFER_MISS:       1365  FULL:          0

 AVG_CONGESTED_CYCLE: 4
 All warmup complete: 2
Channel 0 Bank busy for read cycles: 0
Channel 0 Bank busy for write cycles: 0
Channel 0
Rank 0
0banks busy for read cycles: 252860104
0banks busy for write cycles: 1012
1banks busy for read cycles: 1716448
1banks busy for write cycles: 128502
2banks busy for read cycles: 572343
2banks busy for write cycles: 35626
3banks busy for read cycles: 262329
3banks busy for write cycles: 10933
4banks busy for read cycles: 147834
4banks busy for write cycles: 2134
5banks busy for read cycles: 109821
5banks busy for write cycles: 929
6banks busy for read cycles: 84817
6banks busy for write cycles: 499
7banks busy for read cycles: 47074
7banks busy for write cycles: 291
8banks busy for read cycles: 46557
8banks busy for write cycles: 238

CPU 0 Branch Prediction Accuracy: 99.6803% MPKI: 0.10827 Average ROB Occupancy at Mispredict: 40.18
Branch types
NOT_BRANCH: 191885537 95.9428%
BRANCH_DIRECT_JUMP: 158358 0.079179%
BRANCH_INDIRECT: 10447 0.0052235%
BRANCH_CONDITIONAL: 6772424 3.38621%
BRANCH_DIRECT_CALL: 294615 0.147307%
BRANCH_INDIRECT_CALL: 291830 0.145915%
BRANCH_RETURN: 586445 0.293222%
BRANCH_OTHER: 0 0%

DRAM PAGES: 1048576
Allocated PAGES: 1314
