526208 bits of metadata so far, 405638 left out of 526336 total budget
table size is 13521 bits, 2253 entries for 5 bit, 1931 entries for 6 bit
526208 total bits (64.23KB)

*** ChampSim Multicore Out-of-Order Simulator ***

Warmup Instructions: 50000000
Simulation Instructions: 200000000
Number of CPUs: 1
LLC sets: 2048
LLC ways: 16
Off-chip DRAM Size: 4096 MB Channels: 1 Width: 64-bit Data Rate: 6400 MT/s
argv[0]: ./ChampSim/Berti/bin/multiperspective_perceptron-no-vberti-no-no-no-no-no-lru-lru-lru-srrip-drrip-lru-lru-lru-1core-no
argv[1]: -warmup_instructions
argv[2]: 50000000
argv[3]: -simulation_instructions
argv[4]: 200000000
argv[5]: -traces
argv[6]: traces/spec2k17_ten/603.bwaves_s-2609B.champsimtrace.xz
CPU 0 runs traces/spec2k17_ten/603.bwaves_s-2609B.champsimtrace.xz
.xz
CPU 0 Multiperspective perceptron branch predictor
BTB has LRU replacement policy
ITLB has LRU replacement policy
DTLB has LRU replacement policy
STLB has LRU replacement policy
L1I has LRU replacement policy
History Sets: 8
History Ways: 16
BERTI Size: 16
BERTI Stride Size: 16
L1D has LRU replacement policy
Initialize SRRIP state for L2C
Initialize DRRIP state for LLC
Heartbeat CPU 0 instructions: 10000002 cycles: 3308841 heartbeat IPC: 3.02221 cumulative IPC: 3.02221 (Simulation time: 0 hr 9 min 39 sec) 
Heartbeat CPU 0 instructions: 20000003 cycles: 6617595 heartbeat IPC: 3.02229 cumulative IPC: 3.02225 (Simulation time: 0 hr 17 min 1 sec) 
Heartbeat CPU 0 instructions: 30000001 cycles: 9927646 heartbeat IPC: 3.0211 cumulative IPC: 3.02186 (Simulation time: 0 hr 22 min 55 sec) 
Heartbeat CPU 0 instructions: 40000002 cycles: 13237130 heartbeat IPC: 3.02162 cumulative IPC: 3.0218 (Simulation time: 0 hr 28 min 6 sec) 
Heartbeat CPU 0 instructions: 50000003 cycles: 16545699 heartbeat IPC: 3.02245 cumulative IPC: 3.02193 (Simulation time: 0 hr 32 min 9 sec) 

Warmup complete CPU 0 instructions: 50000003 cycles: 16545699 (Simulation time: 0 hr 32 min 9 sec) 

Heartbeat CPU 0 instructions: 60000000 cycles: 26107225 heartbeat IPC: 1.04586 cumulative IPC: 1.04586 (Simulation time: 0 hr 36 min 42 sec) 
Heartbeat CPU 0 instructions: 70000000 cycles: 35665685 heartbeat IPC: 1.04619 cumulative IPC: 1.04603 (Simulation time: 0 hr 42 min 45 sec) 
Heartbeat CPU 0 instructions: 80000003 cycles: 45229269 heartbeat IPC: 1.04563 cumulative IPC: 1.04589 (Simulation time: 0 hr 48 min 9 sec) 
Heartbeat CPU 0 instructions: 90000003 cycles: 54787795 heartbeat IPC: 1.04619 cumulative IPC: 1.04597 (Simulation time: 0 hr 54 min 0 sec) 
Heartbeat CPU 0 instructions: 100000001 cycles: 64348109 heartbeat IPC: 1.04599 cumulative IPC: 1.04597 (Simulation time: 0 hr 59 min 14 sec) 
Heartbeat CPU 0 instructions: 110000000 cycles: 73901750 heartbeat IPC: 1.04672 cumulative IPC: 1.0461 (Simulation time: 1 hr 5 min 7 sec) 
Heartbeat CPU 0 instructions: 120000000 cycles: 83461154 heartbeat IPC: 1.04609 cumulative IPC: 1.0461 (Simulation time: 1 hr 10 min 58 sec) 
Heartbeat CPU 0 instructions: 130000002 cycles: 93028571 heartbeat IPC: 1.04521 cumulative IPC: 1.04599 (Simulation time: 1 hr 16 min 25 sec) 
Heartbeat CPU 0 instructions: 140000000 cycles: 102583970 heartbeat IPC: 1.04653 cumulative IPC: 1.04605 (Simulation time: 1 hr 20 min 27 sec) 
Heartbeat CPU 0 instructions: 150000002 cycles: 112144472 heartbeat IPC: 1.04597 cumulative IPC: 1.04604 (Simulation time: 1 hr 24 min 46 sec) 
Heartbeat CPU 0 instructions: 160000000 cycles: 121709943 heartbeat IPC: 1.04543 cumulative IPC: 1.04598 (Simulation time: 1 hr 29 min 12 sec) 
Heartbeat CPU 0 instructions: 170000001 cycles: 131271107 heartbeat IPC: 1.0459 cumulative IPC: 1.04598 (Simulation time: 1 hr 33 min 10 sec) 
Heartbeat CPU 0 instructions: 180000001 cycles: 140833088 heartbeat IPC: 1.04581 cumulative IPC: 1.04596 (Simulation time: 1 hr 36 min 6 sec) 
Heartbeat CPU 0 instructions: 190000000 cycles: 150397900 heartbeat IPC: 1.0455 cumulative IPC: 1.04593 (Simulation time: 1 hr 38 min 45 sec) 
Heartbeat CPU 0 instructions: 200000001 cycles: 159955500 heartbeat IPC: 1.04629 cumulative IPC: 1.04595 (Simulation time: 1 hr 41 min 31 sec) 
Heartbeat CPU 0 instructions: 210000003 cycles: 169519178 heartbeat IPC: 1.04562 cumulative IPC: 1.04593 (Simulation time: 1 hr 43 min 42 sec) 
Heartbeat CPU 0 instructions: 220000000 cycles: 179084781 heartbeat IPC: 1.04541 cumulative IPC: 1.0459 (Simulation time: 1 hr 46 min 7 sec) 
Heartbeat CPU 0 instructions: 230000002 cycles: 188642415 heartbeat IPC: 1.04628 cumulative IPC: 1.04592 (Simulation time: 1 hr 48 min 15 sec) 
Heartbeat CPU 0 instructions: 240000000 cycles: 198202474 heartbeat IPC: 1.04602 cumulative IPC: 1.04593 (Simulation time: 1 hr 49 min 51 sec) 
Heartbeat CPU 0 instructions: 250000002 cycles: 207764872 heartbeat IPC: 1.04576 cumulative IPC: 1.04592 (Simulation time: 1 hr 51 min 25 sec) 
Finished CPU 0 instructions: 200000003 cycles: 191219175 cumulative IPC: 1.04592 (Simulation time: 1 hr 51 min 25 sec) 

ChampSim completed all CPUs

Region of Interest Statistics

CPU 0 cumulative IPC: 1.04592 instructions: 200000003 cycles: 191219175
ITLB TOTAL     ACCESS:   25303665  HIT:   25303665  MISS:          0  HIT %:        100  MISS %:          0   MPKI: 0
ITLB LOAD TRANSLATION ACCESS:   25303665  HIT:   25303665  MISS:          0  HIT %:        100  MISS %:          0   MPKI: 0
ITLB PREFETCH  REQUESTED:          0  ISSUED:          0  USEFUL:          0  USELESS:          0
ITLB USEFUL LOAD PREFETCHES:          0 PREFETCH ISSUED TO LOWER LEVEL:          0  ACCURACY: -nan
ITLB TIMELY PREFETCHES:          0 LATE PREFETCHES: 0 DROPPED PREFETCHES: 0
ITLB PREFETCHES SAME FILL-ORIGIN LEVEL: 0 DIFFERENT FILL-ORIGIN LEVEL: 0
ITLB AVERAGE MISS LATENCY: -nan cycles
ITLB RQ	ACCESS:   34344163	FORWARD:          0	MERGED:    9040498	TO_CACHE:   25303665

DTLB TOTAL     ACCESS:   66362256  HIT:   66220050  MISS:     142206  HIT %:    99.7857  MISS %:   0.214287   MPKI: 0.71103
DTLB LOAD TRANSLATION ACCESS:   66362256  HIT:   66220050  MISS:     142206  HIT %:    99.7857  MISS %:   0.214287   MPKI: 0.71103
DTLB PREFETCH  REQUESTED:          0  ISSUED:          0  USEFUL:          0  USELESS:          0
DTLB USEFUL LOAD PREFETCHES:          0 PREFETCH ISSUED TO LOWER LEVEL:          0  ACCURACY: -nan
DTLB TIMELY PREFETCHES:          0 LATE PREFETCHES: 0 DROPPED PREFETCHES: 0
DTLB PREFETCHES SAME FILL-ORIGIN LEVEL: 0 DIFFERENT FILL-ORIGIN LEVEL: 0
DTLB AVERAGE MISS LATENCY: 174.689 cycles
DTLB RQ	ACCESS:   77964867	FORWARD:          0	MERGED:   11583149	TO_CACHE:   66381718

STLB TOTAL     ACCESS:   28772761  HIT:   28713378  MISS:      59383  HIT %:    99.7936  MISS %:   0.206386   MPKI: 0.296915
STLB LOAD TRANSLATION ACCESS:     142206  HIT:      85847  MISS:      56359  HIT %:    60.3681  MISS %:    39.6319   MPKI: 0.281795
STLB TRANSLATION FROM L1D PREFETCHER ACCESS:   28630555  HIT:   28627531  MISS:       3024  HIT %:    99.9894  MISS %:  0.0105621   MPKI: 0.01512
STLB PREFETCH  REQUESTED:          0  ISSUED:          0  USEFUL:       3024  USELESS:          0
STLB USEFUL LOAD PREFETCHES:       3024 PREFETCH ISSUED TO LOWER LEVEL:          0  ACCURACY: inf
STLB TIMELY PREFETCHES:       3024 LATE PREFETCHES: 4057 DROPPED PREFETCHES: 927525
STLB PREFETCHES SAME FILL-ORIGIN LEVEL: 0 DIFFERENT FILL-ORIGIN LEVEL: 0
STLB AVERAGE MISS LATENCY: 385.223 cycles
STLB RQ	ACCESS:  101678490	FORWARD:          0	MERGED:   71965462	TO_CACHE:   29713028

STLB Hit, L1D data hit: 0
STLB Hit, L2C data hit: 0
STLB Hit, LLC data hit: 0
STLB Hit, LLC data miss: 0
STLB STLB hints to L2: 0
L1D TOTAL     ACCESS:  173443388  HIT:  169444953  MISS:    3998435  HIT %:    97.6947  MISS %:    2.30533   MPKI: 19.9922
L1D LOAD      ACCESS:   66668600  HIT:   66444615  MISS:     223985  HIT %:     99.664  MISS %:   0.335968   MPKI: 1.11992
L1D RFO       ACCESS:   11185343  HIT:   11087895  MISS:      97448  HIT %:    99.1288  MISS %:   0.871212   MPKI: 0.48724
L1D PREFETCH  ACCESS:   95589445  HIT:   91912443  MISS:    3677002  HIT %:    96.1533  MISS %:    3.84666   MPKI: 18.385
L1D PREFETCH  REQUESTED:  364045774  ISSUED:  204321100  USEFUL:    3676944  USELESS:         88
L1D USEFUL LOAD PREFETCHES:    3676944 PREFETCH ISSUED TO LOWER LEVEL:    4877167  ACCURACY: 75.391
L1D TIMELY PREFETCHES:    3676944 LATE PREFETCHES: 19301 DROPPED PREFETCHES: 2633808
L1D PREFETCHES SAME FILL-ORIGIN LEVEL: 3696321 DIFFERENT FILL-ORIGIN LEVEL: 1180846
L1D AVERAGE MISS LATENCY: 150.699 cycles
L1D RQ	ACCESS:   85400089	FORWARD:          0	MERGED:   18294537	TO_CACHE:   66698218
L1D WQ	ACCESS:   11266815	FORWARD:     407334	MERGED:        166	TO_CACHE:   11266649
L1D PQ	ACCESS:  102784816	FORWARD:          0	MERGED:    1248532	TO_CACHE:  101536284

L1D UNIQUE REGIONS ACCESSED: 0
L1D REGIONS CONFLICTS: 0
L1D Cross Page Prefetch Requests: 4894887
L1D Same Page Prefetch Requests: 116493908
L1D ROI Sum of L1D PQ occupancy: 1693265562
L1D PREFETCHES PUSHED FROM L2C: 0
L1I TOTAL     ACCESS:   34344162  HIT:   34344162  MISS:          0  HIT %:        100  MISS %:          0   MPKI: 0
L1I LOAD      ACCESS:   34344162  HIT:   34344162  MISS:          0  HIT %:        100  MISS %:          0   MPKI: 0
L1I PREFETCH  REQUESTED:          0  ISSUED:          0  USEFUL:          0  USELESS:          0
L1I USEFUL LOAD PREFETCHES:          0 PREFETCH ISSUED TO LOWER LEVEL:          0  ACCURACY: -nan
L1I TIMELY PREFETCHES:          0 LATE PREFETCHES: 0 DROPPED PREFETCHES: 0
L1I PREFETCHES SAME FILL-ORIGIN LEVEL: 0 DIFFERENT FILL-ORIGIN LEVEL: 0
L1I AVERAGE MISS LATENCY: -nan cycles
L1I RQ	ACCESS:   45765492	FORWARD:          0	MERGED:   11421329	TO_CACHE:   34344163

BTB TOTAL     ACCESS:    4834901  HIT:    4834896  MISS:          5  HIT %:    99.9999  MISS %: 0.000103415   MPKI: 2.5e-05
BTB BRANCH_DIRECT_JUMP	ACCESS:          0  HIT:          0  MISS:          0
BTB BRANCH_INDIRECT	ACCESS:          0  HIT:          0  MISS:          0
BTB BRANCH_CONDITIONAL	ACCESS:    4834901  HIT:    4834896  MISS:          5
BTB BRANCH_DIRECT_CALL	ACCESS:          0  HIT:          0  MISS:          0
BTB BRANCH_INDIRECT_CALL	ACCESS:          0  HIT:          0  MISS:          0
BTB BRANCH_RETURN	ACCESS:          0  HIT:          0  MISS:          0
BTB BRANCH_OTHER ACCESS:          0  HIT:          0  MISS:          0

L2C TOTAL     ACCESS:    6085570  HIT:    2275568  MISS:    3810002  HIT %:    37.3928  MISS %:    62.6072   MPKI: 19.05
L2C LOAD      ACCESS:     204684  HIT:      65741  MISS:     138943  HIT %:    32.1183  MISS %:    67.8817   MPKI: 0.694715
L2C DATA LOAD MPKI: 0.694715
L2C INSTRUCTION LOAD MPKI: 0
L2C RFO       ACCESS:      97448  HIT:          0  MISS:      97448  HIT %:          0  MISS %:        100   MPKI: 0.48724
L2C PREFETCH  ACCESS:    4693535  HIT:    1127499  MISS:    3566036  HIT %:    24.0224  MISS %:    75.9776   MPKI: 17.8302
L2C DATA PREFETCH MPKI: 17.8302
L2C INSTRUCTION PREFETCH MPKI: 0
L2C WRITEBACK ACCESS:      98932  HIT:      98906  MISS:         26  HIT %:    99.9737  MISS %:  0.0262807   MPKI: 0.00013
L2C LOAD TRANSLATION ACCESS:      56362  HIT:      56097  MISS:        265  HIT %:    99.5298  MISS %:   0.470175   MPKI: 0.001325
L2C TRANSLATION FROM L1D PREFETCHER ACCESS:     934609  HIT:     927325  MISS:       7284  HIT %:    99.2206  MISS %:   0.779363   MPKI: 0.03642
L2C PREFETCH  REQUESTED:          0  ISSUED:          0  USEFUL:      70127  USELESS:    3503507
L2C USEFUL LOAD PREFETCHES:      70127 PREFETCH ISSUED TO LOWER LEVEL:    3569170  ACCURACY: 1.9648
L2C TIMELY PREFETCHES:      70127 LATE PREFETCHES: 3134 DROPPED PREFETCHES: 0
L2C PREFETCHES SAME FILL-ORIGIN LEVEL: 668489 DIFFERENT FILL-ORIGIN LEVEL: 0
L2C AVERAGE MISS LATENCY: 166.341 cycles
L2C RQ	ACCESS:    1293103	FORWARD:          0	MERGED:          0	TO_CACHE:    1293103
L2C WQ	ACCESS:      98932	FORWARD:          0	MERGED:          0	TO_CACHE:      98932
L2C PQ	ACCESS:    4876310	FORWARD:          0	MERGED:        109	TO_CACHE:    4876201

L2C Instructions Evicting Data 0
L2C Translations Evicting Data 7546
L2C Data Evicting Data 3794875
L2C Instructions Evicting Instructions 0
L2C Translations Evicting Instructions 0
L2C Data Evicting Instructions 0
L2C Instructions Evicting Translations 0
L2C Translations Evicting Translations 3
L2C Data Evicting Translations 7552
L2C Dense regions hint from L2: 0
PSCL5 TOTAL     ACCESS:     990965  HIT:     990965  MISS:          0  HIT %:        100  MISS %:          0   MPKI: 0
PSCL5 LOAD TRANSLATION ACCESS:      56359  HIT:      56359  MISS:          0  HIT %:        100  MISS %:          0   MPKI: 0
PSCL5 TRANSLATION FROM L1D PREFETCHER ACCESS:     934606  HIT:     934606  MISS:          0  HIT %:        100  MISS %:          0   MPKI: 0
PSCL5 PREFETCH  REQUESTED:          0  ISSUED:          0  USEFUL:          0  USELESS:          0
PSCL5 USEFUL LOAD PREFETCHES:          0 PREFETCH ISSUED TO LOWER LEVEL:          0  ACCURACY: -nan
PSCL5 TIMELY PREFETCHES:          0 LATE PREFETCHES: 0 DROPPED PREFETCHES: 0
PSCL5 PREFETCHES SAME FILL-ORIGIN LEVEL: 0 DIFFERENT FILL-ORIGIN LEVEL: 0

PSCL4 TOTAL     ACCESS:     990965  HIT:     990965  MISS:          0  HIT %:        100  MISS %:          0   MPKI: 0
PSCL4 LOAD TRANSLATION ACCESS:      56359  HIT:      56359  MISS:          0  HIT %:        100  MISS %:          0   MPKI: 0
PSCL4 TRANSLATION FROM L1D PREFETCHER ACCESS:     934606  HIT:     934606  MISS:          0  HIT %:        100  MISS %:          0   MPKI: 0
PSCL4 PREFETCH  REQUESTED:          0  ISSUED:          0  USEFUL:          0  USELESS:          0
PSCL4 USEFUL LOAD PREFETCHES:          0 PREFETCH ISSUED TO LOWER LEVEL:          0  ACCURACY: -nan
PSCL4 TIMELY PREFETCHES:          0 LATE PREFETCHES: 0 DROPPED PREFETCHES: 0
PSCL4 PREFETCHES SAME FILL-ORIGIN LEVEL: 0 DIFFERENT FILL-ORIGIN LEVEL: 0

PSCL3 TOTAL     ACCESS:     990965  HIT:     990965  MISS:          0  HIT %:        100  MISS %:          0   MPKI: 0
PSCL3 LOAD TRANSLATION ACCESS:      56359  HIT:      56359  MISS:          0  HIT %:        100  MISS %:          0   MPKI: 0
PSCL3 TRANSLATION FROM L1D PREFETCHER ACCESS:     934606  HIT:     934606  MISS:          0  HIT %:        100  MISS %:          0   MPKI: 0
PSCL3 PREFETCH  REQUESTED:          0  ISSUED:          0  USEFUL:          0  USELESS:          0
PSCL3 USEFUL LOAD PREFETCHES:          0 PREFETCH ISSUED TO LOWER LEVEL:          0  ACCURACY: -nan
PSCL3 TIMELY PREFETCHES:          0 LATE PREFETCHES: 0 DROPPED PREFETCHES: 0
PSCL3 PREFETCHES SAME FILL-ORIGIN LEVEL: 0 DIFFERENT FILL-ORIGIN LEVEL: 0

PSCL2 TOTAL     ACCESS:     989235  HIT:     989118  MISS:        117  HIT %:    99.9882  MISS %:  0.0118273   MPKI: 0.000585
PSCL2 LOAD TRANSLATION ACCESS:      56362  HIT:      56245  MISS:        117  HIT %:    99.7924  MISS %:   0.207587   MPKI: 0.000585
PSCL2 TRANSLATION FROM L1D PREFETCHER ACCESS:     932873  HIT:     932873  MISS:          0  HIT %:        100  MISS %:          0   MPKI: 0
PSCL2 PREFETCH  REQUESTED:          0  ISSUED:          0  USEFUL:          0  USELESS:          0
PSCL2 USEFUL LOAD PREFETCHES:          0 PREFETCH ISSUED TO LOWER LEVEL:          0  ACCURACY: -nan
PSCL2 TIMELY PREFETCHES:          0 LATE PREFETCHES: 0 DROPPED PREFETCHES: 0
PSCL2 PREFETCHES SAME FILL-ORIGIN LEVEL: 0 DIFFERENT FILL-ORIGIN LEVEL: 0

LLC TOTAL     ACCESS:    3907526  HIT:      98059  MISS:    3809467  HIT %:    2.50949  MISS %:    97.4905   MPKI: 19.0473
LLC LOAD      ACCESS:     135809  HIT:          0  MISS:     135809  HIT %:          0  MISS %:        100   MPKI: 0.679045
LLC RFO       ACCESS:      97448  HIT:          0  MISS:      97448  HIT %:          0  MISS %:        100   MPKI: 0.48724
LLC PREFETCH  ACCESS:    3569170  HIT:       2020  MISS:    3567150  HIT %:  0.0565958  MISS %:    99.9434   MPKI: 17.8357
LLC WRITEBACK ACCESS:      97550  HIT:      96029  MISS:       1521  HIT %:    98.4408  MISS %:     1.5592   MPKI: 0.007605
LLC LOAD TRANSLATION ACCESS:        265  HIT:          5  MISS:        260  HIT %:    1.88679  MISS %:    98.1132   MPKI: 0.0013
LLC TRANSLATION FROM L1D PREFETCHER ACCESS:       7284  HIT:          5  MISS:       7279  HIT %:  0.0686436  MISS %:    99.9314   MPKI: 0.036395
LLC PREFETCH  REQUESTED:          0  ISSUED:          0  USEFUL:          5  USELESS:    3574964
LLC USEFUL LOAD PREFETCHES:          5 PREFETCH ISSUED TO LOWER LEVEL:    3567150  ACCURACY: 0.000140168
LLC TIMELY PREFETCHES:          5 LATE PREFETCHES: 0 DROPPED PREFETCHES: 0
LLC PREFETCHES SAME FILL-ORIGIN LEVEL: 0 DIFFERENT FILL-ORIGIN LEVEL: 0
LLC AVERAGE MISS LATENCY: 134.979 cycles
LLC RQ	ACCESS:     240806	FORWARD:          0	MERGED:          0	TO_CACHE:     240806
LLC WQ	ACCESS:      97550	FORWARD:          0	MERGED:          0	TO_CACHE:      97550
LLC PQ	ACCESS:    3569170	FORWARD:          0	MERGED:          0	TO_CACHE:    3569170

LLC Dense regions hint to LLC: 0

RAW hits: 560102
Loads Generated: 85960191
Loads sent to L1D: 85400089
Stores Generated: 11266821
Stores sent to L1D: 11266815
Major fault: 0 Minor fault: 70872
Allocated PAGES: 70872

DRAM Statistics
 CHANNEL 0
 RQ ROW_BUFFER_HIT:    2566481  ROW_BUFFER_MISS:    1241465
 DBUS_CONGESTED:       2626
 WQ ROW_BUFFER_HIT:      19342  ROW_BUFFER_MISS:      78235  FULL:          0

 AVG_CONGESTED_CYCLE: 4
 All warmup complete: 2
Channel 0 Bank busy for read cycles: 0
Channel 0 Bank busy for write cycles: 0
Channel 0
Rank 0
0banks busy for read cycles: 61484130
0banks busy for write cycles: 35920
1banks busy for read cycles: 41250517
1banks busy for write cycles: 4723082
2banks busy for read cycles: 28145826
2banks busy for write cycles: 1768774
3banks busy for read cycles: 20317628
3banks busy for write cycles: 1124622
4banks busy for read cycles: 13111923
4banks busy for write cycles: 665043
5banks busy for read cycles: 7968485
5banks busy for write cycles: 430707
6banks busy for read cycles: 4695189
6banks busy for write cycles: 307652
7banks busy for read cycles: 2766405
7banks busy for write cycles: 219984
8banks busy for read cycles: 2032525
8banks busy for write cycles: 170764

CPU 0 Branch Prediction Accuracy: 99.9709% MPKI: 0.007275 Average ROB Occupancy at Mispredict: 43.5588
Branch types
NOT_BRANCH: 195007396 97.5037%
BRANCH_DIRECT_JUMP: 0 0%
BRANCH_INDIRECT: 0 0%
BRANCH_CONDITIONAL: 4992275 2.49614%
BRANCH_DIRECT_CALL: 0 0%
BRANCH_INDIRECT_CALL: 0 0%
BRANCH_RETURN: 0 0%
BRANCH_OTHER: 0 0%

DRAM PAGES: 1048576
Allocated PAGES: 70872
