526208 bits of metadata so far, 405638 left out of 526336 total budget
table size is 13521 bits, 2253 entries for 5 bit, 1931 entries for 6 bit
526208 total bits (64.23KB)

*** ChampSim Multicore Out-of-Order Simulator ***

Warmup Instructions: 50000000
Simulation Instructions: 200000000
Number of CPUs: 1
LLC sets: 2048
LLC ways: 16
Off-chip DRAM Size: 4096 MB Channels: 1 Width: 64-bit Data Rate: 6400 MT/s
argv[0]: ./ChampSim/Berti/bin/multiperspective_perceptron-no-vberti-no-no-no-no-no-lru-lru-lru-srrip-drrip-lru-lru-lru-1core-no
argv[1]: -warmup_instructions
argv[2]: 50000000
argv[3]: -simulation_instructions
argv[4]: 200000000
argv[5]: -traces
argv[6]: traces/spec2k17_ten/603.bwaves_s-891B.champsimtrace.xz
CPU 0 runs traces/spec2k17_ten/603.bwaves_s-891B.champsimtrace.xz
.xz
CPU 0 Multiperspective perceptron branch predictor
BTB has LRU replacement policy
ITLB has LRU replacement policy
DTLB has LRU replacement policy
STLB has LRU replacement policy
L1I has LRU replacement policy
History Sets: 8
History Ways: 16
BERTI Size: 16
BERTI Stride Size: 16
L1D has LRU replacement policy
Initialize SRRIP state for L2C
Initialize DRRIP state for LLC
Heartbeat CPU 0 instructions: 10000003 cycles: 2715417 heartbeat IPC: 3.68268 cumulative IPC: 3.68268 (Simulation time: 0 hr 1 min 19 sec) 
Heartbeat CPU 0 instructions: 20000003 cycles: 5430813 heartbeat IPC: 3.6827 cumulative IPC: 3.68269 (Simulation time: 0 hr 2 min 19 sec) 
Heartbeat CPU 0 instructions: 30000002 cycles: 8146206 heartbeat IPC: 3.68271 cumulative IPC: 3.6827 (Simulation time: 0 hr 3 min 14 sec) 
Heartbeat CPU 0 instructions: 40000000 cycles: 10861601 heartbeat IPC: 3.6827 cumulative IPC: 3.6827 (Simulation time: 0 hr 5 min 20 sec) 
Heartbeat CPU 0 instructions: 50000002 cycles: 13778243 heartbeat IPC: 3.4286 cumulative IPC: 3.62891 (Simulation time: 0 hr 8 min 26 sec) 

Warmup complete CPU 0 instructions: 50000002 cycles: 13778243 (Simulation time: 0 hr 8 min 26 sec) 

Heartbeat CPU 0 instructions: 60000001 cycles: 27529055 heartbeat IPC: 0.72723 cumulative IPC: 0.72723 (Simulation time: 0 hr 16 min 15 sec) 
Heartbeat CPU 0 instructions: 70000001 cycles: 41280287 heartbeat IPC: 0.727208 cumulative IPC: 0.727219 (Simulation time: 0 hr 19 min 35 sec) 
Heartbeat CPU 0 instructions: 80000002 cycles: 55031629 heartbeat IPC: 0.727202 cumulative IPC: 0.727213 (Simulation time: 0 hr 24 min 21 sec) 
Heartbeat CPU 0 instructions: 90000001 cycles: 68782600 heartbeat IPC: 0.727221 cumulative IPC: 0.727215 (Simulation time: 0 hr 28 min 57 sec) 
Heartbeat CPU 0 instructions: 100000000 cycles: 82533369 heartbeat IPC: 0.727232 cumulative IPC: 0.727218 (Simulation time: 0 hr 34 min 20 sec) 
Heartbeat CPU 0 instructions: 110000000 cycles: 96284534 heartbeat IPC: 0.727211 cumulative IPC: 0.727217 (Simulation time: 0 hr 38 min 55 sec) 
Heartbeat CPU 0 instructions: 120000001 cycles: 110035364 heartbeat IPC: 0.727229 cumulative IPC: 0.727219 (Simulation time: 0 hr 43 min 49 sec) 
Heartbeat CPU 0 instructions: 130000000 cycles: 123786090 heartbeat IPC: 0.727234 cumulative IPC: 0.727221 (Simulation time: 0 hr 48 min 23 sec) 
Heartbeat CPU 0 instructions: 140000001 cycles: 137537696 heartbeat IPC: 0.727188 cumulative IPC: 0.727217 (Simulation time: 0 hr 53 min 10 sec) 
Heartbeat CPU 0 instructions: 150000000 cycles: 151289011 heartbeat IPC: 0.727203 cumulative IPC: 0.727216 (Simulation time: 0 hr 57 min 52 sec) 
Heartbeat CPU 0 instructions: 160000000 cycles: 165040382 heartbeat IPC: 0.7272 cumulative IPC: 0.727214 (Simulation time: 1 hr 2 min 37 sec) 
Heartbeat CPU 0 instructions: 170000000 cycles: 178713289 heartbeat IPC: 0.731373 cumulative IPC: 0.727559 (Simulation time: 1 hr 6 min 59 sec) 
Heartbeat CPU 0 instructions: 180000001 cycles: 192228563 heartbeat IPC: 0.739904 cumulative IPC: 0.728494 (Simulation time: 1 hr 11 min 19 sec) 
Heartbeat CPU 0 instructions: 190000002 cycles: 205637901 heartbeat IPC: 0.745749 cumulative IPC: 0.7297 (Simulation time: 1 hr 16 min 25 sec) 
Heartbeat CPU 0 instructions: 200000002 cycles: 218912986 heartbeat IPC: 0.753291 cumulative IPC: 0.731227 (Simulation time: 1 hr 22 min 1 sec) 
Heartbeat CPU 0 instructions: 210000002 cycles: 232187914 heartbeat IPC: 0.7533 cumulative IPC: 0.732568 (Simulation time: 1 hr 27 min 12 sec) 
Heartbeat CPU 0 instructions: 220000000 cycles: 245463016 heartbeat IPC: 0.75329 cumulative IPC: 0.733756 (Simulation time: 1 hr 31 min 51 sec) 
Heartbeat CPU 0 instructions: 230000000 cycles: 258737305 heartbeat IPC: 0.753336 cumulative IPC: 0.734817 (Simulation time: 1 hr 35 min 51 sec) 
Heartbeat CPU 0 instructions: 240000000 cycles: 272012446 heartbeat IPC: 0.753288 cumulative IPC: 0.735766 (Simulation time: 1 hr 39 min 21 sec) 
Heartbeat CPU 0 instructions: 250000000 cycles: 285287285 heartbeat IPC: 0.753305 cumulative IPC: 0.736624 (Simulation time: 1 hr 41 min 50 sec) 
Finished CPU 0 instructions: 200000002 cycles: 271509043 cumulative IPC: 0.736624 (Simulation time: 1 hr 41 min 50 sec) 

ChampSim completed all CPUs

Region of Interest Statistics

CPU 0 cumulative IPC: 0.736624 instructions: 200000002 cycles: 271509043
ITLB TOTAL     ACCESS:   33459492  HIT:   33459491  MISS:          1  HIT %:        100  MISS %: 2.98869e-06   MPKI: 5e-06
ITLB LOAD TRANSLATION ACCESS:   33459492  HIT:   33459491  MISS:          1  HIT %:        100  MISS %: 2.98869e-06   MPKI: 5e-06
ITLB PREFETCH  REQUESTED:          0  ISSUED:          0  USEFUL:          0  USELESS:          0
ITLB USEFUL LOAD PREFETCHES:          0 PREFETCH ISSUED TO LOWER LEVEL:          0  ACCURACY: -nan
ITLB TIMELY PREFETCHES:          0 LATE PREFETCHES: 0 DROPPED PREFETCHES: 0
ITLB PREFETCHES SAME FILL-ORIGIN LEVEL: 0 DIFFERENT FILL-ORIGIN LEVEL: 0
ITLB AVERAGE MISS LATENCY: 431 cycles
ITLB RQ	ACCESS:   36235075	FORWARD:          0	MERGED:    2775582	TO_CACHE:   33459493

DTLB TOTAL     ACCESS:   24337063  HIT:   24276409  MISS:      60654  HIT %:    99.7508  MISS %:   0.249225   MPKI: 0.30327
DTLB LOAD TRANSLATION ACCESS:   24337063  HIT:   24276409  MISS:      60654  HIT %:    99.7508  MISS %:   0.249225   MPKI: 0.30327
DTLB PREFETCH  REQUESTED:          0  ISSUED:          0  USEFUL:          0  USELESS:          0
DTLB USEFUL LOAD PREFETCHES:          0 PREFETCH ISSUED TO LOWER LEVEL:          0  ACCURACY: -nan
DTLB TIMELY PREFETCHES:          0 LATE PREFETCHES: 0 DROPPED PREFETCHES: 0
DTLB PREFETCHES SAME FILL-ORIGIN LEVEL: 0 DIFFERENT FILL-ORIGIN LEVEL: 0
DTLB AVERAGE MISS LATENCY: 86.003 cycles
DTLB RQ	ACCESS:   24808692	FORWARD:          0	MERGED:     466645	TO_CACHE:   24342047

STLB TOTAL     ACCESS:   15069303  HIT:   15008985  MISS:      60318  HIT %:    99.5997  MISS %:   0.400271   MPKI: 0.30159
STLB LOAD TRANSLATION ACCESS:      60655  HIT:      18563  MISS:      42092  HIT %:    30.6042  MISS %:    69.3958   MPKI: 0.21046
STLB TRANSLATION FROM L1D PREFETCHER ACCESS:   15008648  HIT:   14990422  MISS:      18226  HIT %:    99.8786  MISS %:   0.121437   MPKI: 0.09113
STLB PREFETCH  REQUESTED:          0  ISSUED:          0  USEFUL:      18226  USELESS:          0
STLB USEFUL LOAD PREFETCHES:      18226 PREFETCH ISSUED TO LOWER LEVEL:          0  ACCURACY: inf
STLB TIMELY PREFETCHES:      18226 LATE PREFETCHES: 12036 DROPPED PREFETCHES: 1224589
STLB PREFETCHES SAME FILL-ORIGIN LEVEL: 0 DIFFERENT FILL-ORIGIN LEVEL: 0
STLB AVERAGE MISS LATENCY: 97.2071 cycles
STLB RQ	ACCESS:  104613860	FORWARD:          0	MERGED:   88136618	TO_CACHE:   16477242

STLB Hit, L1D data hit: 0
STLB Hit, L2C data hit: 0
STLB Hit, LLC data hit: 0
STLB Hit, LLC data miss: 0
STLB STLB hints to L2: 0
L1D TOTAL     ACCESS:  111700491  HIT:  107839387  MISS:    3861104  HIT %:    96.5433  MISS %:    3.45666   MPKI: 19.3055
L1D LOAD      ACCESS:   21297115  HIT:   21214545  MISS:      82570  HIT %:    99.6123  MISS %:   0.387705   MPKI: 0.41285
L1D RFO       ACCESS:    3343199  HIT:    3343197  MISS:          2  HIT %:    99.9999  MISS %: 5.98229e-05   MPKI: 1e-05
L1D PREFETCH  ACCESS:   87060177  HIT:   83281645  MISS:    3778532  HIT %:    95.6599  MISS %:    4.34014   MPKI: 18.8927
L1D PREFETCH  REQUESTED:  242432992  ISSUED:  229277133  USEFUL:    3778511  USELESS:         16
L1D USEFUL LOAD PREFETCHES:    3778511 PREFETCH ISSUED TO LOWER LEVEL:    8022466  ACCURACY: 47.0991
L1D TIMELY PREFETCHES:    3778511 LATE PREFETCHES: 41714 DROPPED PREFETCHES: 3697653
L1D PREFETCHES SAME FILL-ORIGIN LEVEL: 3820248 DIFFERENT FILL-ORIGIN LEVEL: 4202218
L1D AVERAGE MISS LATENCY: 138.132 cycles
L1D RQ	ACCESS:   35804809	FORWARD:          0	MERGED:   14339315	TO_CACHE:   21465494
L1D WQ	ACCESS:    3375822	FORWARD:          0	MERGED:      32624	TO_CACHE:    3343198
L1D PQ	ACCESS:  124723928	FORWARD:          0	MERGED:   20170723	TO_CACHE:  104553205

L1D UNIQUE REGIONS ACCESSED: 0
L1D REGIONS CONFLICTS: 0
L1D Cross Page Prefetch Requests: 13922139
L1D Same Page Prefetch Requests: 140659325
L1D ROI Sum of L1D PQ occupancy: 1680346776
L1D PREFETCHES PUSHED FROM L2C: 0
L1I TOTAL     ACCESS:   36235073  HIT:   36235066  MISS:          7  HIT %:        100  MISS %: 1.93183e-05   MPKI: 3.5e-05
L1I LOAD      ACCESS:   36235073  HIT:   36235066  MISS:          7  HIT %:        100  MISS %: 1.93183e-05   MPKI: 3.5e-05
L1I PREFETCH  REQUESTED:          0  ISSUED:          0  USEFUL:          0  USELESS:          0
L1I USEFUL LOAD PREFETCHES:          0 PREFETCH ISSUED TO LOWER LEVEL:          0  ACCURACY: -nan
L1I TIMELY PREFETCHES:          0 LATE PREFETCHES: 0 DROPPED PREFETCHES: 0
L1I PREFETCHES SAME FILL-ORIGIN LEVEL: 0 DIFFERENT FILL-ORIGIN LEVEL: 0
L1I AVERAGE MISS LATENCY: 214.143 cycles
L1I RQ	ACCESS:   45256591	FORWARD:          0	MERGED:    9021516	TO_CACHE:   36235075

BTB TOTAL     ACCESS:   30088189  HIT:   30088178  MISS:         11  HIT %:        100  MISS %: 3.65592e-05   MPKI: 5.5e-05
BTB BRANCH_DIRECT_JUMP	ACCESS:    1387292  HIT:    1387290  MISS:          2
BTB BRANCH_INDIRECT	ACCESS:          0  HIT:          0  MISS:          0
BTB BRANCH_CONDITIONAL	ACCESS:   28700897  HIT:   28700888  MISS:          9
BTB BRANCH_DIRECT_CALL	ACCESS:          0  HIT:          0  MISS:          0
BTB BRANCH_INDIRECT_CALL	ACCESS:          0  HIT:          0  MISS:          0
BTB BRANCH_RETURN	ACCESS:          0  HIT:          0  MISS:          0
BTB BRANCH_OTHER ACCESS:          0  HIT:          0  MISS:          0

L2C TOTAL     ACCESS:    7519811  HIT:    3651424  MISS:    3868387  HIT %:    48.5574  MISS %:    51.4426   MPKI: 19.3419
L2C LOAD      ACCESS:      40863  HIT:       3274  MISS:      37589  HIT %:    8.01214  MISS %:    91.9879   MPKI: 0.187945
L2C DATA LOAD MPKI: 0.18791
L2C INSTRUCTION LOAD MPKI: 3.5e-05
L2C RFO       ACCESS:          2  HIT:          0  MISS:          2  HIT %:          0  MISS %:        100   MPKI: 1e-05
L2C PREFETCH  ACCESS:    6181938  HIT:    2358808  MISS:    3823130  HIT %:    38.1564  MISS %:    61.8436   MPKI: 19.1156
L2C DATA PREFETCH MPKI: 19.1156
L2C INSTRUCTION PREFETCH MPKI: 0
L2C WRITEBACK ACCESS:          4  HIT:          1  MISS:          3  HIT %:         25  MISS %:         75   MPKI: 1.5e-05
L2C LOAD TRANSLATION ACCESS:      42096  HIT:      42090  MISS:          6  HIT %:    99.9857  MISS %:  0.0142531   MPKI: 3e-05
L2C TRANSLATION FROM L1D PREFETCHER ACCESS:    1254908  HIT:    1247251  MISS:       7657  HIT %:    99.3898  MISS %:   0.610164   MPKI: 0.038285
L2C PREFETCH  REQUESTED:          0  ISSUED:          0  USEFUL:      10501  USELESS:    3820337
L2C USEFUL LOAD PREFETCHES:      10501 PREFETCH ISSUED TO LOWER LEVEL:    3827587  ACCURACY: 0.27435
L2C TIMELY PREFETCHES:      10501 LATE PREFETCHES: 4451 DROPPED PREFETCHES: 0
L2C PREFETCHES SAME FILL-ORIGIN LEVEL: 792203 DIFFERENT FILL-ORIGIN LEVEL: 0
L2C AVERAGE MISS LATENCY: 150.038 cycles
L2C RQ	ACCESS:    1337869	FORWARD:          0	MERGED:          0	TO_CACHE:    1337869
L2C WQ	ACCESS:          4	FORWARD:          0	MERGED:          0	TO_CACHE:          4
L2C PQ	ACCESS:    8022466	FORWARD:          0	MERGED:          0	TO_CACHE:    8022466

L2C Instructions Evicting Data 7
L2C Translations Evicting Data 7642
L2C Data Evicting Data 3853063
L2C Instructions Evicting Instructions 0
L2C Translations Evicting Instructions 0
L2C Data Evicting Instructions 7
L2C Instructions Evicting Translations 0
L2C Translations Evicting Translations 21
L2C Data Evicting Translations 7644
L2C Dense regions hint from L2: 0
PSCL5 TOTAL     ACCESS:    1296943  HIT:    1296943  MISS:          0  HIT %:        100  MISS %:          0   MPKI: 0
PSCL5 LOAD TRANSLATION ACCESS:      42092  HIT:      42092  MISS:          0  HIT %:        100  MISS %:          0   MPKI: 0
PSCL5 TRANSLATION FROM L1D PREFETCHER ACCESS:    1254851  HIT:    1254851  MISS:          0  HIT %:        100  MISS %:          0   MPKI: 0
PSCL5 PREFETCH  REQUESTED:          0  ISSUED:          0  USEFUL:          0  USELESS:          0
PSCL5 USEFUL LOAD PREFETCHES:          0 PREFETCH ISSUED TO LOWER LEVEL:          0  ACCURACY: -nan
PSCL5 TIMELY PREFETCHES:          0 LATE PREFETCHES: 0 DROPPED PREFETCHES: 0
PSCL5 PREFETCHES SAME FILL-ORIGIN LEVEL: 0 DIFFERENT FILL-ORIGIN LEVEL: 0

PSCL4 TOTAL     ACCESS:    1296943  HIT:    1296943  MISS:          0  HIT %:        100  MISS %:          0   MPKI: 0
PSCL4 LOAD TRANSLATION ACCESS:      42092  HIT:      42092  MISS:          0  HIT %:        100  MISS %:          0   MPKI: 0
PSCL4 TRANSLATION FROM L1D PREFETCHER ACCESS:    1254851  HIT:    1254851  MISS:          0  HIT %:        100  MISS %:          0   MPKI: 0
PSCL4 PREFETCH  REQUESTED:          0  ISSUED:          0  USEFUL:          0  USELESS:          0
PSCL4 USEFUL LOAD PREFETCHES:          0 PREFETCH ISSUED TO LOWER LEVEL:          0  ACCURACY: -nan
PSCL4 TIMELY PREFETCHES:          0 LATE PREFETCHES: 0 DROPPED PREFETCHES: 0
PSCL4 PREFETCHES SAME FILL-ORIGIN LEVEL: 0 DIFFERENT FILL-ORIGIN LEVEL: 0

PSCL3 TOTAL     ACCESS:    1296943  HIT:    1296943  MISS:          0  HIT %:        100  MISS %:          0   MPKI: 0
PSCL3 LOAD TRANSLATION ACCESS:      42092  HIT:      42092  MISS:          0  HIT %:        100  MISS %:          0   MPKI: 0
PSCL3 TRANSLATION FROM L1D PREFETCHER ACCESS:    1254851  HIT:    1254851  MISS:          0  HIT %:        100  MISS %:          0   MPKI: 0
PSCL3 PREFETCH  REQUESTED:          0  ISSUED:          0  USEFUL:          0  USELESS:          0
PSCL3 USEFUL LOAD PREFETCHES:          0 PREFETCH ISSUED TO LOWER LEVEL:          0  ACCURACY: -nan
PSCL3 TIMELY PREFETCHES:          0 LATE PREFETCHES: 0 DROPPED PREFETCHES: 0
PSCL3 PREFETCHES SAME FILL-ORIGIN LEVEL: 0 DIFFERENT FILL-ORIGIN LEVEL: 0

PSCL2 TOTAL     ACCESS:    1294707  HIT:    1294587  MISS:        120  HIT %:    99.9907  MISS %: 0.00926851   MPKI: 0.0006
PSCL2 LOAD TRANSLATION ACCESS:      42127  HIT:      42007  MISS:        120  HIT %:    99.7151  MISS %:   0.284853   MPKI: 0.0006
PSCL2 TRANSLATION FROM L1D PREFETCHER ACCESS:    1252580  HIT:    1252580  MISS:          0  HIT %:        100  MISS %:          0   MPKI: 0
PSCL2 PREFETCH  REQUESTED:          0  ISSUED:          0  USEFUL:          0  USELESS:          0
PSCL2 USEFUL LOAD PREFETCHES:          0 PREFETCH ISSUED TO LOWER LEVEL:          0  ACCURACY: -nan
PSCL2 TIMELY PREFETCHES:          0 LATE PREFETCHES: 0 DROPPED PREFETCHES: 0
PSCL2 PREFETCHES SAME FILL-ORIGIN LEVEL: 0 DIFFERENT FILL-ORIGIN LEVEL: 0

LLC TOTAL     ACCESS:    3868388  HIT:        519  MISS:    3867869  HIT %:  0.0134164  MISS %:    99.9866   MPKI: 19.3393
LLC LOAD      ACCESS:      33138  HIT:        473  MISS:      32665  HIT %:    1.42736  MISS %:    98.5726   MPKI: 0.163325
LLC RFO       ACCESS:          2  HIT:          0  MISS:          2  HIT %:          0  MISS %:        100   MPKI: 1e-05
LLC PREFETCH  ACCESS:    3827581  HIT:          6  MISS:    3827575  HIT %: 0.000156757  MISS %:    99.9998   MPKI: 19.1379
LLC WRITEBACK ACCESS:          4  HIT:          1  MISS:          3  HIT %:         25  MISS %:         75   MPKI: 1.5e-05
LLC LOAD TRANSLATION ACCESS:          6  HIT:          0  MISS:          6  HIT %:          0  MISS %:        100   MPKI: 3e-05
LLC TRANSLATION FROM L1D PREFETCHER ACCESS:       7657  HIT:         39  MISS:       7618  HIT %:   0.509338  MISS %:    99.4907   MPKI: 0.03809
LLC PREFETCH  REQUESTED:          0  ISSUED:          0  USEFUL:          7  USELESS:    3834737
LLC USEFUL LOAD PREFETCHES:          7 PREFETCH ISSUED TO LOWER LEVEL:    3827581  ACCURACY: 0.000182883
LLC TIMELY PREFETCHES:          7 LATE PREFETCHES: 0 DROPPED PREFETCHES: 0
LLC PREFETCHES SAME FILL-ORIGIN LEVEL: 0 DIFFERENT FILL-ORIGIN LEVEL: 0
LLC AVERAGE MISS LATENCY: 119.896 cycles
LLC RQ	ACCESS:      40803	FORWARD:          0	MERGED:          0	TO_CACHE:      40803
LLC WQ	ACCESS:          4	FORWARD:          0	MERGED:          0	TO_CACHE:          4
LLC PQ	ACCESS:    3827587	FORWARD:          0	MERGED:          0	TO_CACHE:    3827587

LLC Dense regions hint to LLC: 0

RAW hits: 1
Loads Generated: 35804810
Loads sent to L1D: 35804809
Stores Generated: 3375822
Stores sent to L1D: 3375822
Major fault: 0 Minor fault: 62153
Allocated PAGES: 62153

DRAM Statistics
 CHANNEL 0
 RQ ROW_BUFFER_HIT:    2722447  ROW_BUFFER_MISS:    1145420
 DBUS_CONGESTED:       1065
 WQ ROW_BUFFER_HIT:          6  ROW_BUFFER_MISS:        409  FULL:          0

 AVG_CONGESTED_CYCLE: 2
 All warmup complete: 2
Channel 0 Bank busy for read cycles: 0
Channel 0 Bank busy for write cycles: 0
Channel 0
Rank 0
0banks busy for read cycles: 106291067
0banks busy for write cycles: 411
1banks busy for read cycles: 89712643
1banks busy for write cycles: 1137480
2banks busy for read cycles: 33653953
2banks busy for write cycles: 79732
3banks busy for read cycles: 26800818
3banks busy for write cycles: 0
4banks busy for read cycles: 9014793
4banks busy for write cycles: 0
5banks busy for read cycles: 1094868
5banks busy for write cycles: 0
6banks busy for read cycles: 233367
6banks busy for write cycles: 0
7banks busy for read cycles: 310947
7banks busy for write cycles: 0
8banks busy for read cycles: 3178965
8banks busy for write cycles: 0

CPU 0 Branch Prediction Accuracy: 99.8613% MPKI: 0.22286 Average ROB Occupancy at Mispredict: 23.5746
Branch types
NOT_BRANCH: 166478363 83.2392%
BRANCH_DIRECT_JUMP: 1387292 0.693646%
BRANCH_INDIRECT: 0 0%
BRANCH_CONDITIONAL: 32134349 16.0672%
BRANCH_DIRECT_CALL: 0 0%
BRANCH_INDIRECT_CALL: 0 0%
BRANCH_RETURN: 0 0%
BRANCH_OTHER: 0 0%

DRAM PAGES: 1048576
Allocated PAGES: 62153
