
*** ChampSim Multicore Out-of-Order Simulator ***

Warmup Instructions: 50000000
Simulation Instructions: 200000000
Number of CPUs: 1
LLC sets: 2048
LLC ways: 16
Off-chip DRAM Size: 4096 MB Channels: 1 Width: 64-bit Data Rate: 6400 MT/s
argv[0]: ./ChampSim/Berti/bin/multiperspective_perceptron8kb-no-vberti-no-no-no-no-no-lru-lru-lru-srrip-drrip-lru-lru-lru-1core-no
argv[1]: -warmup_instructions
argv[2]: 50000000
argv[3]: -simulation_instructions
argv[4]: 200000000
argv[5]: -traces
argv[6]: traces/spec2k17_ten/605.mcf_s-1536B.champsimtrace.xz
CPU 0 runs traces/spec2k17_ten/605.mcf_s-1536B.champsimtrace.xz
.xz
CPU 0 Multiperspective perceptron branch predictor
BTB has LRU replacement policy
ITLB has LRU replacement policy
DTLB has LRU replacement policy
STLB has LRU replacement policy
L1I has LRU replacement policy
History Sets: 8
History Ways: 16
BERTI Size: 16
BERTI Stride Size: 16
L1D has LRU replacement policy
Initialize SRRIP state for L2C
Initialize DRRIP state for LLC
Heartbeat CPU 0 instructions: 10000003 cycles: 2840401 heartbeat IPC: 3.52063 cumulative IPC: 3.52063 (Simulation time: 0 hr 5 min 24 sec) 
Heartbeat CPU 0 instructions: 20000003 cycles: 5671397 heartbeat IPC: 3.53233 cumulative IPC: 3.52647 (Simulation time: 0 hr 14 min 54 sec) 
Heartbeat CPU 0 instructions: 30000001 cycles: 8514633 heartbeat IPC: 3.51712 cumulative IPC: 3.52335 (Simulation time: 0 hr 22 min 18 sec) 
Heartbeat CPU 0 instructions: 40000001 cycles: 11367982 heartbeat IPC: 3.50465 cumulative IPC: 3.51865 (Simulation time: 0 hr 31 min 50 sec) 
Heartbeat CPU 0 instructions: 50000003 cycles: 14234747 heartbeat IPC: 3.48825 cumulative IPC: 3.51253 (Simulation time: 0 hr 38 min 6 sec) 

Warmup complete CPU 0 instructions: 50000003 cycles: 14234747 (Simulation time: 0 hr 38 min 6 sec) 

Heartbeat CPU 0 instructions: 60000003 cycles: 52202593 heartbeat IPC: 0.263381 cumulative IPC: 0.263381 (Simulation time: 0 hr 51 min 55 sec) 
Heartbeat CPU 0 instructions: 70000000 cycles: 90418521 heartbeat IPC: 0.261671 cumulative IPC: 0.262523 (Simulation time: 1 hr 10 min 33 sec) 
Heartbeat CPU 0 instructions: 80000001 cycles: 128490222 heartbeat IPC: 0.262662 cumulative IPC: 0.262569 (Simulation time: 1 hr 23 min 26 sec) 
Heartbeat CPU 0 instructions: 90000000 cycles: 166746413 heartbeat IPC: 0.261396 cumulative IPC: 0.262275 (Simulation time: 1 hr 36 min 37 sec) 
Heartbeat CPU 0 instructions: 100000002 cycles: 204934192 heartbeat IPC: 0.261864 cumulative IPC: 0.262193 (Simulation time: 1 hr 49 min 1 sec) 
Heartbeat CPU 0 instructions: 110000000 cycles: 243248432 heartbeat IPC: 0.261 cumulative IPC: 0.261993 (Simulation time: 2 hr 0 min 36 sec) 
Heartbeat CPU 0 instructions: 120000000 cycles: 281937834 heartbeat IPC: 0.258469 cumulative IPC: 0.261484 (Simulation time: 2 hr 16 min 34 sec) 
Heartbeat CPU 0 instructions: 130000003 cycles: 320317142 heartbeat IPC: 0.260557 cumulative IPC: 0.261368 (Simulation time: 2 hr 33 min 13 sec) 
Heartbeat CPU 0 instructions: 140000000 cycles: 359028596 heartbeat IPC: 0.258321 cumulative IPC: 0.261026 (Simulation time: 2 hr 49 min 47 sec) 
Heartbeat CPU 0 instructions: 150000001 cycles: 397631372 heartbeat IPC: 0.259049 cumulative IPC: 0.260826 (Simulation time: 3 hr 3 min 58 sec) 
Heartbeat CPU 0 instructions: 160000000 cycles: 436225088 heartbeat IPC: 0.25911 cumulative IPC: 0.260669 (Simulation time: 3 hr 14 min 56 sec) 
Heartbeat CPU 0 instructions: 170000002 cycles: 475057931 heartbeat IPC: 0.257514 cumulative IPC: 0.260404 (Simulation time: 3 hr 24 min 28 sec) 
Heartbeat CPU 0 instructions: 180000002 cycles: 513832627 heartbeat IPC: 0.2579 cumulative IPC: 0.260209 (Simulation time: 3 hr 31 min 45 sec) 
Heartbeat CPU 0 instructions: 190000003 cycles: 552698375 heartbeat IPC: 0.257296 cumulative IPC: 0.259999 (Simulation time: 3 hr 37 min 30 sec) 
Heartbeat CPU 0 instructions: 200000003 cycles: 591786474 heartbeat IPC: 0.255832 cumulative IPC: 0.259717 (Simulation time: 3 hr 42 min 18 sec) 
Heartbeat CPU 0 instructions: 210000000 cycles: 630962745 heartbeat IPC: 0.255256 cumulative IPC: 0.259434 (Simulation time: 3 hr 45 min 27 sec) 
Heartbeat CPU 0 instructions: 220000000 cycles: 670241647 heartbeat IPC: 0.25459 cumulative IPC: 0.259144 (Simulation time: 3 hr 47 min 53 sec) 
Heartbeat CPU 0 instructions: 230000000 cycles: 709769048 heartbeat IPC: 0.252989 cumulative IPC: 0.258794 (Simulation time: 3 hr 50 min 11 sec) 
Heartbeat CPU 0 instructions: 240000002 cycles: 749346861 heartbeat IPC: 0.252667 cumulative IPC: 0.258464 (Simulation time: 3 hr 51 min 35 sec) 
Heartbeat CPU 0 instructions: 250000001 cycles: 789203575 heartbeat IPC: 0.250899 cumulative IPC: 0.258075 (Simulation time: 3 hr 52 min 54 sec) 
Finished CPU 0 instructions: 200000002 cycles: 774968829 cumulative IPC: 0.258075 (Simulation time: 3 hr 52 min 54 sec) 

ChampSim completed all CPUs

Region of Interest Statistics

CPU 0 cumulative IPC: 0.258075 instructions: 200000002 cycles: 774968829
ITLB TOTAL     ACCESS:   35596876  HIT:   35596876  MISS:          0  HIT %:        100  MISS %:          0   MPKI: 0
ITLB LOAD TRANSLATION ACCESS:   35596876  HIT:   35596876  MISS:          0  HIT %:        100  MISS %:          0   MPKI: 0
ITLB PREFETCH  REQUESTED:          0  ISSUED:          0  USEFUL:          0  USELESS:          0
ITLB USEFUL LOAD PREFETCHES:          0 PREFETCH ISSUED TO LOWER LEVEL:          0  ACCURACY: -nan
ITLB TIMELY PREFETCHES:          0 LATE PREFETCHES: 0 DROPPED PREFETCHES: 0
ITLB PREFETCHES SAME FILL-ORIGIN LEVEL: 0 DIFFERENT FILL-ORIGIN LEVEL: 0
ITLB AVERAGE MISS LATENCY: -nan cycles
ITLB RQ	ACCESS:   42813497	FORWARD:          0	MERGED:    7216621	TO_CACHE:   35596876

DTLB TOTAL     ACCESS:   30166093  HIT:   25291742  MISS:    4874351  HIT %:    83.8416  MISS %:    16.1584   MPKI: 24.3718
DTLB LOAD TRANSLATION ACCESS:   30166093  HIT:   25291742  MISS:    4874351  HIT %:    83.8416  MISS %:    16.1584   MPKI: 24.3718
DTLB PREFETCH  REQUESTED:          0  ISSUED:          0  USEFUL:          0  USELESS:          0
DTLB USEFUL LOAD PREFETCHES:          0 PREFETCH ISSUED TO LOWER LEVEL:          0  ACCURACY: -nan
DTLB TIMELY PREFETCHES:          0 LATE PREFETCHES: 0 DROPPED PREFETCHES: 0
DTLB PREFETCHES SAME FILL-ORIGIN LEVEL: 0 DIFFERENT FILL-ORIGIN LEVEL: 0
DTLB AVERAGE MISS LATENCY: 76.5501 cycles
DTLB RQ	ACCESS:   34917212	FORWARD:          0	MERGED:    4715249	TO_CACHE:   30201963

STLB TOTAL     ACCESS:   12791155  HIT:    8144907  MISS:    4646248  HIT %:    63.6761  MISS %:    36.3239   MPKI: 23.2312
STLB LOAD TRANSLATION ACCESS:    4874351  HIT:     340555  MISS:    4533796  HIT %:    6.98667  MISS %:    93.0133   MPKI: 22.669
STLB TRANSLATION FROM L1D PREFETCHER ACCESS:    7916804  HIT:    7804352  MISS:     112452  HIT %:    98.5796  MISS %:    1.42042   MPKI: 0.56226
STLB PREFETCH  REQUESTED:          0  ISSUED:          0  USEFUL:     110421  USELESS:       2030
STLB USEFUL LOAD PREFETCHES:     110421 PREFETCH ISSUED TO LOWER LEVEL:          0  ACCURACY: inf
STLB TIMELY PREFETCHES:     110421 LATE PREFETCHES: 1056 DROPPED PREFETCHES: 119657
STLB PREFETCHES SAME FILL-ORIGIN LEVEL: 0 DIFFERENT FILL-ORIGIN LEVEL: 0
STLB AVERAGE MISS LATENCY: 71.4045 cycles
STLB RQ	ACCESS:   24114419	FORWARD:          0	MERGED:   11189396	TO_CACHE:   12925023

STLB Hit, L1D data hit: 0
STLB Hit, L2C data hit: 0
STLB Hit, LLC data hit: 0
STLB Hit, LLC data miss: 0
STLB STLB hints to L2: 0
L1D TOTAL     ACCESS:   36123307  HIT:   24783757  MISS:   11339550  HIT %:    68.6088  MISS %:    31.3912   MPKI: 56.6977
L1D LOAD      ACCESS:   25876367  HIT:   15613925  MISS:   10262442  HIT %:    60.3405  MISS %:    39.6595   MPKI: 51.3122
L1D RFO       ACCESS:    8868406  HIT:    8314059  MISS:     554347  HIT %:    93.7492  MISS %:    6.25081   MPKI: 2.77173
L1D PREFETCH  ACCESS:    1378534  HIT:     855773  MISS:     522761  HIT %:    62.0785  MISS %:    37.9215   MPKI: 2.6138
L1D PREFETCH  REQUESTED:   38814994  ISSUED:   38813109  USEFUL:     272063  USELESS:     250711
L1D USEFUL LOAD PREFETCHES:     272063 PREFETCH ISSUED TO LOWER LEVEL:   18238718  ACCURACY: 1.49168
L1D TIMELY PREFETCHES:     272063 LATE PREFETCHES: 1227 DROPPED PREFETCHES: 119661
L1D PREFETCHES SAME FILL-ORIGIN LEVEL: 523988 DIFFERENT FILL-ORIGIN LEVEL: 17714730
L1D AVERAGE MISS LATENCY: 109.786 cycles
L1D RQ	ACCESS:   49206037	FORWARD:          0	MERGED:   22728936	TO_CACHE:   26048804
L1D WQ	ACCESS:    8868414	FORWARD:     428297	MERGED:          6	TO_CACHE:    8868408
L1D PQ	ACCESS:   19573041	FORWARD:          0	MERGED:     332973	TO_CACHE:   19240068

L1D UNIQUE REGIONS ACCESSED: 0
L1D REGIONS CONFLICTS: 0
L1D Cross Page Prefetch Requests: 3421576
L1D Same Page Prefetch Requests: 18934620
L1D ROI Sum of L1D PQ occupancy: 280914559
L1D PREFETCHES PUSHED FROM L2C: 0
L1I TOTAL     ACCESS:   42813495  HIT:   42813495  MISS:          0  HIT %:        100  MISS %:          0   MPKI: 0
L1I LOAD      ACCESS:   42813495  HIT:   42813495  MISS:          0  HIT %:        100  MISS %:          0   MPKI: 0
L1I PREFETCH  REQUESTED:          0  ISSUED:          0  USEFUL:          0  USELESS:          0
L1I USEFUL LOAD PREFETCHES:          0 PREFETCH ISSUED TO LOWER LEVEL:          0  ACCURACY: -nan
L1I TIMELY PREFETCHES:          0 LATE PREFETCHES: 0 DROPPED PREFETCHES: 0
L1I PREFETCHES SAME FILL-ORIGIN LEVEL: 0 DIFFERENT FILL-ORIGIN LEVEL: 0
L1I AVERAGE MISS LATENCY: -nan cycles
L1I RQ	ACCESS:   63690041	FORWARD:          0	MERGED:   20876544	TO_CACHE:   42813497

BTB TOTAL     ACCESS:   26649158  HIT:   26649150  MISS:          8  HIT %:        100  MISS %: 3.00197e-05   MPKI: 4e-05
BTB BRANCH_DIRECT_JUMP	ACCESS:    4549688  HIT:    4549686  MISS:          2
BTB BRANCH_INDIRECT	ACCESS:          0  HIT:          0  MISS:          0
BTB BRANCH_CONDITIONAL	ACCESS:   13231060  HIT:   13231056  MISS:          4
BTB BRANCH_DIRECT_CALL	ACCESS:    4434205  HIT:    4434204  MISS:          1
BTB BRANCH_INDIRECT_CALL	ACCESS:          0  HIT:          0  MISS:          0
BTB BRANCH_RETURN	ACCESS:    4434205  HIT:    4434204  MISS:          1
BTB BRANCH_OTHER ACCESS:          0  HIT:          0  MISS:          0

L2C TOTAL     ACCESS:   38935797  HIT:   25323294  MISS:   13612503  HIT %:    65.0386  MISS %:    34.9614   MPKI: 68.0625
L2C LOAD      ACCESS:   10261215  HIT:    3701556  MISS:    6559659  HIT %:    36.0733  MISS %:    63.9267   MPKI: 32.7983
L2C DATA LOAD MPKI: 32.7983
L2C INSTRUCTION LOAD MPKI: 0
L2C RFO       ACCESS:     554347  HIT:      18016  MISS:     536331  HIT %:    3.24995  MISS %:    96.7501   MPKI: 2.68165
L2C PREFETCH  ACCESS:   18180480  HIT:   15957121  MISS:    2223359  HIT %:    87.7706  MISS %:    12.2294   MPKI: 11.1168
L2C DATA PREFETCH MPKI: 11.1168
L2C INSTRUCTION PREFETCH MPKI: 0
L2C WRITEBACK ACCESS:    4434196  HIT:    4292822  MISS:     141374  HIT %:    96.8117  MISS %:    3.18827   MPKI: 0.70687
L2C LOAD TRANSLATION ACCESS:    5144557  HIT:    1000681  MISS:    4143876  HIT %:    19.4513  MISS %:    80.5487   MPKI: 20.7194
L2C TRANSLATION FROM L1D PREFETCHER ACCESS:     361002  HIT:     353098  MISS:       7904  HIT %:    97.8105  MISS %:    2.18946   MPKI: 0.03952
L2C PREFETCH  REQUESTED:          0  ISSUED:          0  USEFUL:     323424  USELESS:    1906972
L2C USEFUL LOAD PREFETCHES:     323424 PREFETCH ISSUED TO LOWER LEVEL:    2229598  ACCURACY: 14.5059
L2C TIMELY PREFETCHES:     323424 LATE PREFETCHES: 6239 DROPPED PREFETCHES: 0
L2C PREFETCHES SAME FILL-ORIGIN LEVEL: 2186324 DIFFERENT FILL-ORIGIN LEVEL: 0
L2C AVERAGE MISS LATENCY: 94.7587 cycles
L2C RQ	ACCESS:   16321121	FORWARD:          0	MERGED:          0	TO_CACHE:   16321121
L2C WQ	ACCESS:    4434196	FORWARD:          0	MERGED:          0	TO_CACHE:    4434196
L2C PQ	ACCESS:   18238718	FORWARD:          0	MERGED:       4907	TO_CACHE:   18233811

L2C Instructions Evicting Data 0
L2C Translations Evicting Data 2535587
L2C Data Evicting Data 6807066
L2C Instructions Evicting Instructions 0
L2C Translations Evicting Instructions 0
L2C Data Evicting Instructions 0
L2C Instructions Evicting Translations 0
L2C Translations Evicting Translations 1616193
L2C Data Evicting Translations 2512283
L2C Dense regions hint from L2: 0
PSCL5 TOTAL     ACCESS:    4765910  HIT:    4765910  MISS:          0  HIT %:        100  MISS %:          0   MPKI: 0
PSCL5 LOAD TRANSLATION ACCESS:    4532745  HIT:    4532745  MISS:          0  HIT %:        100  MISS %:          0   MPKI: 0
PSCL5 TRANSLATION FROM L1D PREFETCHER ACCESS:     233165  HIT:     233165  MISS:          0  HIT %:        100  MISS %:          0   MPKI: 0
PSCL5 PREFETCH  REQUESTED:          0  ISSUED:          0  USEFUL:          0  USELESS:          0
PSCL5 USEFUL LOAD PREFETCHES:          0 PREFETCH ISSUED TO LOWER LEVEL:          0  ACCURACY: -nan
PSCL5 TIMELY PREFETCHES:          0 LATE PREFETCHES: 0 DROPPED PREFETCHES: 0
PSCL5 PREFETCHES SAME FILL-ORIGIN LEVEL: 0 DIFFERENT FILL-ORIGIN LEVEL: 0

PSCL4 TOTAL     ACCESS:    4765910  HIT:    4765910  MISS:          0  HIT %:        100  MISS %:          0   MPKI: 0
PSCL4 LOAD TRANSLATION ACCESS:    4532745  HIT:    4532745  MISS:          0  HIT %:        100  MISS %:          0   MPKI: 0
PSCL4 TRANSLATION FROM L1D PREFETCHER ACCESS:     233165  HIT:     233165  MISS:          0  HIT %:        100  MISS %:          0   MPKI: 0
PSCL4 PREFETCH  REQUESTED:          0  ISSUED:          0  USEFUL:          0  USELESS:          0
PSCL4 USEFUL LOAD PREFETCHES:          0 PREFETCH ISSUED TO LOWER LEVEL:          0  ACCURACY: -nan
PSCL4 TIMELY PREFETCHES:          0 LATE PREFETCHES: 0 DROPPED PREFETCHES: 0
PSCL4 PREFETCHES SAME FILL-ORIGIN LEVEL: 0 DIFFERENT FILL-ORIGIN LEVEL: 0

PSCL3 TOTAL     ACCESS:    4765910  HIT:    4765910  MISS:          0  HIT %:        100  MISS %:          0   MPKI: 0
PSCL3 LOAD TRANSLATION ACCESS:    4532745  HIT:    4532745  MISS:          0  HIT %:        100  MISS %:          0   MPKI: 0
PSCL3 TRANSLATION FROM L1D PREFETCHER ACCESS:     233165  HIT:     233165  MISS:          0  HIT %:        100  MISS %:          0   MPKI: 0
PSCL3 PREFETCH  REQUESTED:          0  ISSUED:          0  USEFUL:          0  USELESS:          0
PSCL3 USEFUL LOAD PREFETCHES:          0 PREFETCH ISSUED TO LOWER LEVEL:          0  ACCURACY: -nan
PSCL3 TIMELY PREFETCHES:          0 LATE PREFETCHES: 0 DROPPED PREFETCHES: 0
PSCL3 PREFETCHES SAME FILL-ORIGIN LEVEL: 0 DIFFERENT FILL-ORIGIN LEVEL: 0

PSCL2 TOTAL     ACCESS:    4646248  HIT:    4026261  MISS:     619987  HIT %:    86.6562  MISS %:    13.3438   MPKI: 3.09993
PSCL2 LOAD TRANSLATION ACCESS:    4540920  HIT:    3920933  MISS:     619987  HIT %:    86.3467  MISS %:    13.6533   MPKI: 3.09993
PSCL2 TRANSLATION FROM L1D PREFETCHER ACCESS:     105328  HIT:     105328  MISS:          0  HIT %:        100  MISS %:          0   MPKI: 0
PSCL2 PREFETCH  REQUESTED:          0  ISSUED:          0  USEFUL:          0  USELESS:          0
PSCL2 USEFUL LOAD PREFETCHES:          0 PREFETCH ISSUED TO LOWER LEVEL:          0  ACCURACY: -nan
PSCL2 TIMELY PREFETCHES:          0 LATE PREFETCHES: 0 DROPPED PREFETCHES: 0
PSCL2 PREFETCHES SAME FILL-ORIGIN LEVEL: 0 DIFFERENT FILL-ORIGIN LEVEL: 0

LLC TOTAL     ACCESS:   17906496  HIT:   12663601  MISS:    5242895  HIT %:    70.7207  MISS %:    29.2793   MPKI: 26.2145
LLC LOAD      ACCESS:    6553420  HIT:    1535326  MISS:    5018094  HIT %:    23.4279  MISS %:    76.5721   MPKI: 25.0905
LLC RFO       ACCESS:     536331  HIT:     528163  MISS:       8168  HIT %:    98.4771  MISS %:    1.52294   MPKI: 0.04084
LLC PREFETCH  ACCESS:    2229598  HIT:    2098197  MISS:     131401  HIT %:    94.1065  MISS %:    5.89348   MPKI: 0.657005
LLC WRITEBACK ACCESS:    4435367  HIT:    4369694  MISS:      65673  HIT %:    98.5193  MISS %:    1.48067   MPKI: 0.328365
LLC LOAD TRANSLATION ACCESS:    4143876  HIT:    4124593  MISS:      19283  HIT %:    99.5347  MISS %:   0.465337   MPKI: 0.096415
LLC TRANSLATION FROM L1D PREFETCHER ACCESS:       7904  HIT:       7628  MISS:        276  HIT %:    96.5081  MISS %:     3.4919   MPKI: 0.00138
LLC PREFETCH  REQUESTED:          0  ISSUED:          0  USEFUL:       3429  USELESS:     123194
LLC USEFUL LOAD PREFETCHES:       3429 PREFETCH ISSUED TO LOWER LEVEL:     131401  ACCURACY: 2.60957
LLC TIMELY PREFETCHES:       3429 LATE PREFETCHES: 0 DROPPED PREFETCHES: 0
LLC PREFETCHES SAME FILL-ORIGIN LEVEL: 0 DIFFERENT FILL-ORIGIN LEVEL: 0
LLC AVERAGE MISS LATENCY: 168.61 cycles
LLC RQ	ACCESS:   11241531	FORWARD:          0	MERGED:          0	TO_CACHE:   11241531
LLC WQ	ACCESS:    4435367	FORWARD:          0	MERGED:          0	TO_CACHE:    4435367
LLC PQ	ACCESS:    2229598	FORWARD:          0	MERGED:          0	TO_CACHE:    2229598

LLC Dense regions hint to LLC: 0

RAW hits: 4002678
Loads Generated: 53208715
Loads sent to L1D: 49206037
Stores Generated: 8868412
Stores sent to L1D: 8868414
Major fault: 0 Minor fault: 101164
Allocated PAGES: 101164

DRAM Statistics
 CHANNEL 0
 RQ ROW_BUFFER_HIT:      28548  ROW_BUFFER_MISS:    5148674
 DBUS_CONGESTED:         30
 WQ ROW_BUFFER_HIT:    1198370  ROW_BUFFER_MISS:    3242669  FULL:          0

 AVG_CONGESTED_CYCLE: 5
 All warmup complete: 2
Channel 0 Bank busy for read cycles: 0
Channel 0 Bank busy for write cycles: 0
Channel 0
Rank 0
0banks busy for read cycles: 41367489
0banks busy for write cycles: 755675
1banks busy for read cycles: 212675780
1banks busy for write cycles: 56217007
2banks busy for read cycles: 128735434
2banks busy for write cycles: 63737948
3banks busy for read cycles: 75858435
3banks busy for write cycles: 85900970
4banks busy for read cycles: 17962223
4banks busy for write cycles: 58198756
5banks busy for read cycles: 611395
5banks busy for write cycles: 19131572
6banks busy for read cycles: 148263
6banks busy for write cycles: 7040278
7banks busy for read cycles: 47772
7banks busy for write cycles: 2918310
8banks busy for read cycles: 12326
8banks busy for write cycles: 3649197

CPU 0 Branch Prediction Accuracy: 99.9791% MPKI: 0.01853 Average ROB Occupancy at Mispredict: 326.045
Branch types
NOT_BRANCH: 168845081 84.4225%
BRANCH_DIRECT_JUMP: 4549688 2.27484%
BRANCH_INDIRECT: 0 0%
BRANCH_CONDITIONAL: 17736819 8.86841%
BRANCH_DIRECT_CALL: 4434205 2.2171%
BRANCH_INDIRECT_CALL: 0 0%
BRANCH_RETURN: 4434205 2.2171%
BRANCH_OTHER: 0 0%

DRAM PAGES: 1048576
Allocated PAGES: 101164
