
*** ChampSim Multicore Out-of-Order Simulator ***

Warmup Instructions: 50000000
Simulation Instructions: 200000000
Number of CPUs: 1
LLC sets: 2048
LLC ways: 16
Off-chip DRAM Size: 4096 MB Channels: 1 Width: 64-bit Data Rate: 6400 MT/s
argv[0]: ./ChampSim/Berti/bin/multiperspective_perceptron8kb-no-vberti-no-no-no-no-no-lru-lru-lru-srrip-drrip-lru-lru-lru-1core-no
argv[1]: -warmup_instructions
argv[2]: 50000000
argv[3]: -simulation_instructions
argv[4]: 200000000
argv[5]: -traces
argv[6]: traces/spec2k17_ten/605.mcf_s-1554B.champsimtrace.xz
CPU 0 runs traces/spec2k17_ten/605.mcf_s-1554B.champsimtrace.xz
.xz
CPU 0 Multiperspective perceptron branch predictor
BTB has LRU replacement policy
ITLB has LRU replacement policy
DTLB has LRU replacement policy
STLB has LRU replacement policy
L1I has LRU replacement policy
History Sets: 8
History Ways: 16
BERTI Size: 16
BERTI Stride Size: 16
L1D has LRU replacement policy
Initialize SRRIP state for L2C
Initialize DRRIP state for LLC
Heartbeat CPU 0 instructions: 10000001 cycles: 3464078 heartbeat IPC: 2.88677 cumulative IPC: 2.88677 (Simulation time: 0 hr 11 min 53 sec) 
Heartbeat CPU 0 instructions: 20000000 cycles: 6951021 heartbeat IPC: 2.86784 cumulative IPC: 2.87728 (Simulation time: 0 hr 20 min 57 sec) 
Heartbeat CPU 0 instructions: 30000001 cycles: 10447398 heartbeat IPC: 2.8601 cumulative IPC: 2.87153 (Simulation time: 0 hr 29 min 22 sec) 
Heartbeat CPU 0 instructions: 40000000 cycles: 13930127 heartbeat IPC: 2.87131 cumulative IPC: 2.87147 (Simulation time: 0 hr 38 min 16 sec) 
Heartbeat CPU 0 instructions: 50000001 cycles: 17415490 heartbeat IPC: 2.86914 cumulative IPC: 2.87101 (Simulation time: 0 hr 46 min 12 sec) 

Warmup complete CPU 0 instructions: 50000001 cycles: 17415490 (Simulation time: 0 hr 46 min 12 sec) 

Heartbeat CPU 0 instructions: 60000002 cycles: 33488540 heartbeat IPC: 0.62216 cumulative IPC: 0.62216 (Simulation time: 1 hr 5 min 34 sec) 
Heartbeat CPU 0 instructions: 70000000 cycles: 49873475 heartbeat IPC: 0.610317 cumulative IPC: 0.616181 (Simulation time: 1 hr 18 min 58 sec) 
Heartbeat CPU 0 instructions: 80000000 cycles: 66493690 heartbeat IPC: 0.601677 cumulative IPC: 0.611269 (Simulation time: 1 hr 35 min 4 sec) 
Heartbeat CPU 0 instructions: 90000003 cycles: 82827956 heartbeat IPC: 0.61221 cumulative IPC: 0.611504 (Simulation time: 1 hr 45 min 58 sec) 
Heartbeat CPU 0 instructions: 100000000 cycles: 99002062 heartbeat IPC: 0.618272 cumulative IPC: 0.612846 (Simulation time: 1 hr 55 min 8 sec) 
Heartbeat CPU 0 instructions: 110000000 cycles: 115308013 heartbeat IPC: 0.613273 cumulative IPC: 0.612917 (Simulation time: 2 hr 6 min 12 sec) 
Heartbeat CPU 0 instructions: 120000000 cycles: 130846506 heartbeat IPC: 0.643563 cumulative IPC: 0.617115 (Simulation time: 2 hr 16 min 40 sec) 
Heartbeat CPU 0 instructions: 130000000 cycles: 146936182 heartbeat IPC: 0.621517 cumulative IPC: 0.617662 (Simulation time: 2 hr 32 min 46 sec) 
Heartbeat CPU 0 instructions: 140000000 cycles: 163074099 heartbeat IPC: 0.619659 cumulative IPC: 0.617883 (Simulation time: 2 hr 43 min 20 sec) 
Heartbeat CPU 0 instructions: 150000001 cycles: 179057236 heartbeat IPC: 0.625659 cumulative IPC: 0.618652 (Simulation time: 2 hr 55 min 57 sec) 
Heartbeat CPU 0 instructions: 160000000 cycles: 194181290 heartbeat IPC: 0.661198 cumulative IPC: 0.622292 (Simulation time: 3 hr 7 min 27 sec) 
Heartbeat CPU 0 instructions: 170000002 cycles: 209484524 heartbeat IPC: 0.653457 cumulative IPC: 0.624775 (Simulation time: 3 hr 15 min 46 sec) 
Heartbeat CPU 0 instructions: 180000002 cycles: 224945420 heartbeat IPC: 0.646793 cumulative IPC: 0.626416 (Simulation time: 3 hr 23 min 41 sec) 
Heartbeat CPU 0 instructions: 190000001 cycles: 240236555 heartbeat IPC: 0.653974 cumulative IPC: 0.628307 (Simulation time: 3 hr 28 min 51 sec) 
Heartbeat CPU 0 instructions: 200000002 cycles: 255477111 heartbeat IPC: 0.656144 cumulative IPC: 0.630089 (Simulation time: 3 hr 35 min 7 sec) 
Heartbeat CPU 0 instructions: 210000002 cycles: 271174818 heartbeat IPC: 0.637036 cumulative IPC: 0.630519 (Simulation time: 3 hr 38 min 59 sec) 
Heartbeat CPU 0 instructions: 220000000 cycles: 286995318 heartbeat IPC: 0.632091 cumulative IPC: 0.630611 (Simulation time: 3 hr 42 min 30 sec) 
Heartbeat CPU 0 instructions: 230000000 cycles: 302275374 heartbeat IPC: 0.654448 cumulative IPC: 0.63189 (Simulation time: 3 hr 45 min 18 sec) 
Heartbeat CPU 0 instructions: 240000001 cycles: 318105591 heartbeat IPC: 0.631703 cumulative IPC: 0.63188 (Simulation time: 3 hr 47 min 18 sec) 
Heartbeat CPU 0 instructions: 250000001 cycles: 334008522 heartbeat IPC: 0.628815 cumulative IPC: 0.631726 (Simulation time: 3 hr 48 min 55 sec) 
Finished CPU 0 instructions: 200000000 cycles: 316593032 cumulative IPC: 0.631726 (Simulation time: 3 hr 48 min 55 sec) 

ChampSim completed all CPUs

Region of Interest Statistics

CPU 0 cumulative IPC: 0.631726 instructions: 200000000 cycles: 316593032
ITLB TOTAL     ACCESS:   39507569  HIT:   39507569  MISS:          0  HIT %:        100  MISS %:          0   MPKI: 0
ITLB LOAD TRANSLATION ACCESS:   39507569  HIT:   39507569  MISS:          0  HIT %:        100  MISS %:          0   MPKI: 0
ITLB PREFETCH  REQUESTED:          0  ISSUED:          0  USEFUL:          0  USELESS:          0
ITLB USEFUL LOAD PREFETCHES:          0 PREFETCH ISSUED TO LOWER LEVEL:          0  ACCURACY: -nan
ITLB TIMELY PREFETCHES:          0 LATE PREFETCHES: 0 DROPPED PREFETCHES: 0
ITLB PREFETCHES SAME FILL-ORIGIN LEVEL: 0 DIFFERENT FILL-ORIGIN LEVEL: 0
ITLB AVERAGE MISS LATENCY: -nan cycles
ITLB RQ	ACCESS:   48289846	FORWARD:          0	MERGED:    8782277	TO_CACHE:   39507569

DTLB TOTAL     ACCESS:   62118277  HIT:   61317741  MISS:     800536  HIT %:    98.7113  MISS %:    1.28873   MPKI: 4.00268
DTLB LOAD TRANSLATION ACCESS:   62118277  HIT:   61317741  MISS:     800536  HIT %:    98.7113  MISS %:    1.28873   MPKI: 4.00268
DTLB PREFETCH  REQUESTED:          0  ISSUED:          0  USEFUL:          0  USELESS:          0
DTLB USEFUL LOAD PREFETCHES:          0 PREFETCH ISSUED TO LOWER LEVEL:          0  ACCURACY: -nan
DTLB TIMELY PREFETCHES:          0 LATE PREFETCHES: 0 DROPPED PREFETCHES: 0
DTLB PREFETCHES SAME FILL-ORIGIN LEVEL: 0 DIFFERENT FILL-ORIGIN LEVEL: 0
DTLB AVERAGE MISS LATENCY: 10.5644 cycles
DTLB RQ	ACCESS:   77012629	FORWARD:          0	MERGED:   14878649	TO_CACHE:   62133980

STLB TOTAL     ACCESS:   36643426  HIT:   36631135  MISS:      12291  HIT %:    99.9665  MISS %:  0.0335422   MPKI: 0.061455
STLB LOAD TRANSLATION ACCESS:     800536  HIT:     788643  MISS:      11893  HIT %:    98.5144  MISS %:    1.48563   MPKI: 0.059465
STLB TRANSLATION FROM L1D PREFETCHER ACCESS:   35842890  HIT:   35842492  MISS:        398  HIT %:    99.9989  MISS %:  0.0011104   MPKI: 0.00199
STLB PREFETCH  REQUESTED:          0  ISSUED:          0  USEFUL:        398  USELESS:          0
STLB USEFUL LOAD PREFETCHES:        398 PREFETCH ISSUED TO LOWER LEVEL:          0  ACCURACY: inf
STLB TIMELY PREFETCHES:        398 LATE PREFETCHES: 171 DROPPED PREFETCHES: 67069
STLB PREFETCHES SAME FILL-ORIGIN LEVEL: 0 DIFFERENT FILL-ORIGIN LEVEL: 0
STLB AVERAGE MISS LATENCY: 163.587 cycles
STLB RQ	ACCESS:  174572109	FORWARD:          0	MERGED:  137858407	TO_CACHE:   36713702

STLB Hit, L1D data hit: 0
STLB Hit, L2C data hit: 0
STLB Hit, LLC data hit: 0
STLB Hit, LLC data miss: 0
STLB STLB hints to L2: 0
L1D TOTAL     ACCESS:  188308551  HIT:  154348191  MISS:   33960360  HIT %:    81.9656  MISS %:    18.0344   MPKI: 169.802
L1D LOAD      ACCESS:   64920334  HIT:   61303690  MISS:    3616644  HIT %:    94.4291  MISS %:     5.5709   MPKI: 18.0832
L1D RFO       ACCESS:   10299980  HIT:    9898862  MISS:     401118  HIT %:    96.1056  MISS %:    3.89436   MPKI: 2.00559
L1D PREFETCH  ACCESS:  113088237  HIT:   83145639  MISS:   29942598  HIT %:    73.5228  MISS %:    26.4772   MPKI: 149.713
L1D PREFETCH  REQUESTED:  538822454  ISSUED:  366122623  USEFUL:   27141940  USELESS:    2800673
L1D USEFUL LOAD PREFETCHES:   27141940 PREFETCH ISSUED TO LOWER LEVEL:   83020157  ACCURACY: 32.6932
L1D TIMELY PREFETCHES:   27141940 LATE PREFETCHES: 985747 DROPPED PREFETCHES: 194351
L1D PREFETCHES SAME FILL-ORIGIN LEVEL: 31157258 DIFFERENT FILL-ORIGIN LEVEL: 51862899
L1D AVERAGE MISS LATENCY: 57.293 cycles
L1D RQ	ACCESS:   83234010	FORWARD:          0	MERGED:   18070921	TO_CACHE:   65042760
L1D WQ	ACCESS:   13518702	FORWARD:     120330	MERGED:    1548833	TO_CACHE:   11969869
L1D PQ	ACCESS:  192351050	FORWARD:          0	MERGED:   18579476	TO_CACHE:  173771573

L1D UNIQUE REGIONS ACCESSED: 0
L1D REGIONS CONFLICTS: 0
L1D Cross Page Prefetch Requests: 61851362
L1D Same Page Prefetch Requests: 154369679
L1D ROI Sum of L1D PQ occupancy: 2716686656
L1D PREFETCHES PUSHED FROM L2C: 0
L1I TOTAL     ACCESS:   48289845  HIT:   48289845  MISS:          0  HIT %:        100  MISS %:          0   MPKI: 0
L1I LOAD      ACCESS:   48289845  HIT:   48289845  MISS:          0  HIT %:        100  MISS %:          0   MPKI: 0
L1I PREFETCH  REQUESTED:          0  ISSUED:          0  USEFUL:          0  USELESS:          0
L1I USEFUL LOAD PREFETCHES:          0 PREFETCH ISSUED TO LOWER LEVEL:          0  ACCURACY: -nan
L1I TIMELY PREFETCHES:          0 LATE PREFETCHES: 0 DROPPED PREFETCHES: 0
L1I PREFETCHES SAME FILL-ORIGIN LEVEL: 0 DIFFERENT FILL-ORIGIN LEVEL: 0
L1I AVERAGE MISS LATENCY: -nan cycles
L1I RQ	ACCESS:   79255877	FORWARD:          0	MERGED:   30966031	TO_CACHE:   48289846

BTB TOTAL     ACCESS:   35943477  HIT:   35943445  MISS:         32  HIT %:    99.9999  MISS %: 8.90287e-05   MPKI: 0.00016
BTB BRANCH_DIRECT_JUMP	ACCESS:    8413979  HIT:    8413973  MISS:          6
BTB BRANCH_INDIRECT	ACCESS:          0  HIT:          0  MISS:          0
BTB BRANCH_CONDITIONAL	ACCESS:   27526342  HIT:   27526320  MISS:         22
BTB BRANCH_DIRECT_CALL	ACCESS:       1578  HIT:       1576  MISS:          2
BTB BRANCH_INDIRECT_CALL	ACCESS:          0  HIT:          0  MISS:          0
BTB BRANCH_RETURN	ACCESS:       1578  HIT:       1576  MISS:          2
BTB BRANCH_OTHER ACCESS:          0  HIT:          0  MISS:          0

L2C TOTAL     ACCESS:   73834142  HIT:   32812431  MISS:   41021711  HIT %:    44.4407  MISS %:    55.5593   MPKI: 205.109
L2C LOAD      ACCESS:    2630894  HIT:    2228639  MISS:     402255  HIT %:    84.7103  MISS %:    15.2897   MPKI: 2.01127
L2C DATA LOAD MPKI: 2.01127
L2C INSTRUCTION LOAD MPKI: 0
L2C RFO       ACCESS:     399485  HIT:       3464  MISS:     396021  HIT %:   0.867116  MISS %:    99.1329   MPKI: 1.98011
L2C PREFETCH  ACCESS:   70176219  HIT:   29961961  MISS:   40214258  HIT %:    42.6953  MISS %:    57.3047   MPKI: 201.071
L2C DATA PREFETCH MPKI: 201.071
L2C INSTRUCTION PREFETCH MPKI: 0
L2C WRITEBACK ACCESS:     547682  HIT:     543952  MISS:       3730  HIT %:    99.3189  MISS %:   0.681052   MPKI: 0.01865
L2C LOAD TRANSLATION ACCESS:      11897  HIT:      10199  MISS:       1698  HIT %:    85.7275  MISS %:    14.2725   MPKI: 0.00849
L2C TRANSLATION FROM L1D PREFETCHER ACCESS:      67965  HIT:      64216  MISS:       3749  HIT %:    94.4839  MISS %:    5.51607   MPKI: 0.018745
L2C PREFETCH  REQUESTED:          0  ISSUED:          0  USEFUL:    2231683  USELESS:   37985268
L2C USEFUL LOAD PREFETCHES:    2231683 PREFETCH ISSUED TO LOWER LEVEL:   40452779  ACCURACY: 5.51676
L2C TIMELY PREFETCHES:    2231683 LATE PREFETCHES: 238508 DROPPED PREFETCHES: 0
L2C PREFETCHES SAME FILL-ORIGIN LEVEL: 25172562 DIFFERENT FILL-ORIGIN LEVEL: 0
L2C AVERAGE MISS LATENCY: 99.078 cycles
L2C RQ	ACCESS:    3110246	FORWARD:          0	MERGED:          0	TO_CACHE:    3110242
L2C WQ	ACCESS:     547682	FORWARD:          4	MERGED:          0	TO_CACHE:     547682
L2C PQ	ACCESS:   79854044	FORWARD:          0	MERGED:     179880	TO_CACHE:   79674164

L2C Instructions Evicting Data 0
L2C Translations Evicting Data 5447
L2C Data Evicting Data 41007083
L2C Instructions Evicting Instructions 0
L2C Translations Evicting Instructions 0
L2C Data Evicting Instructions 0
L2C Instructions Evicting Translations 0
L2C Translations Evicting Translations 0
L2C Data Evicting Translations 5451
L2C Dense regions hint from L2: 0
PSCL5 TOTAL     ACCESS:      79525  HIT:      79525  MISS:          0  HIT %:        100  MISS %:          0   MPKI: 0
PSCL5 LOAD TRANSLATION ACCESS:      11887  HIT:      11887  MISS:          0  HIT %:        100  MISS %:          0   MPKI: 0
PSCL5 TRANSLATION FROM L1D PREFETCHER ACCESS:      67638  HIT:      67638  MISS:          0  HIT %:        100  MISS %:          0   MPKI: 0
PSCL5 PREFETCH  REQUESTED:          0  ISSUED:          0  USEFUL:          0  USELESS:          0
PSCL5 USEFUL LOAD PREFETCHES:          0 PREFETCH ISSUED TO LOWER LEVEL:          0  ACCURACY: -nan
PSCL5 TIMELY PREFETCHES:          0 LATE PREFETCHES: 0 DROPPED PREFETCHES: 0
PSCL5 PREFETCHES SAME FILL-ORIGIN LEVEL: 0 DIFFERENT FILL-ORIGIN LEVEL: 0

PSCL4 TOTAL     ACCESS:      79525  HIT:      79525  MISS:          0  HIT %:        100  MISS %:          0   MPKI: 0
PSCL4 LOAD TRANSLATION ACCESS:      11887  HIT:      11887  MISS:          0  HIT %:        100  MISS %:          0   MPKI: 0
PSCL4 TRANSLATION FROM L1D PREFETCHER ACCESS:      67638  HIT:      67638  MISS:          0  HIT %:        100  MISS %:          0   MPKI: 0
PSCL4 PREFETCH  REQUESTED:          0  ISSUED:          0  USEFUL:          0  USELESS:          0
PSCL4 USEFUL LOAD PREFETCHES:          0 PREFETCH ISSUED TO LOWER LEVEL:          0  ACCURACY: -nan
PSCL4 TIMELY PREFETCHES:          0 LATE PREFETCHES: 0 DROPPED PREFETCHES: 0
PSCL4 PREFETCHES SAME FILL-ORIGIN LEVEL: 0 DIFFERENT FILL-ORIGIN LEVEL: 0

PSCL3 TOTAL     ACCESS:      79525  HIT:      79524  MISS:          1  HIT %:    99.9987  MISS %: 0.00125747   MPKI: 5e-06
PSCL3 LOAD TRANSLATION ACCESS:      11887  HIT:      11886  MISS:          1  HIT %:    99.9916  MISS %: 0.00841255   MPKI: 5e-06
PSCL3 TRANSLATION FROM L1D PREFETCHER ACCESS:      67638  HIT:      67638  MISS:          0  HIT %:        100  MISS %:          0   MPKI: 0
PSCL3 PREFETCH  REQUESTED:          0  ISSUED:          0  USEFUL:          0  USELESS:          0
PSCL3 USEFUL LOAD PREFETCHES:          0 PREFETCH ISSUED TO LOWER LEVEL:          0  ACCURACY: -nan
PSCL3 TIMELY PREFETCHES:          0 LATE PREFETCHES: 0 DROPPED PREFETCHES: 0
PSCL3 PREFETCHES SAME FILL-ORIGIN LEVEL: 0 DIFFERENT FILL-ORIGIN LEVEL: 0

PSCL2 TOTAL     ACCESS:      79117  HIT:      79078  MISS:         39  HIT %:    99.9507  MISS %:  0.0492941   MPKI: 0.000195
PSCL2 LOAD TRANSLATION ACCESS:      11892  HIT:      11853  MISS:         39  HIT %:     99.672  MISS %:   0.327952   MPKI: 0.000195
PSCL2 TRANSLATION FROM L1D PREFETCHER ACCESS:      67225  HIT:      67225  MISS:          0  HIT %:        100  MISS %:          0   MPKI: 0
PSCL2 PREFETCH  REQUESTED:          0  ISSUED:          0  USEFUL:          0  USELESS:          0
PSCL2 USEFUL LOAD PREFETCHES:          0 PREFETCH ISSUED TO LOWER LEVEL:          0  ACCURACY: -nan
PSCL2 TIMELY PREFETCHES:          0 LATE PREFETCHES: 0 DROPPED PREFETCHES: 0
PSCL2 PREFETCHES SAME FILL-ORIGIN LEVEL: 0 DIFFERENT FILL-ORIGIN LEVEL: 0

LLC TOTAL     ACCESS:   41565119  HIT:   23505836  MISS:   18059283  HIT %:    56.5518  MISS %:    43.4482   MPKI: 90.2964
LLC LOAD      ACCESS:     164194  HIT:      97641  MISS:      66553  HIT %:    59.4669  MISS %:    40.5331   MPKI: 0.332765
LLC RFO       ACCESS:     395574  HIT:       2337  MISS:     393237  HIT %:   0.590787  MISS %:    99.4092   MPKI: 1.96619
LLC PREFETCH  ACCESS:   40452767  HIT:   23367414  MISS:   17085353  HIT %:    57.7647  MISS %:    42.2353   MPKI: 85.4268
LLC WRITEBACK ACCESS:     547137  HIT:      37544  MISS:     509593  HIT %:     6.8619  MISS %:    93.1381   MPKI: 2.54797
LLC LOAD TRANSLATION ACCESS:       1698  HIT:         14  MISS:       1684  HIT %:   0.824499  MISS %:    99.1755   MPKI: 0.00842
LLC TRANSLATION FROM L1D PREFETCHER ACCESS:       3749  HIT:        886  MISS:       2863  HIT %:     23.633  MISS %:     76.367   MPKI: 0.014315
LLC PREFETCH  REQUESTED:          0  ISSUED:          0  USEFUL:       9220  USELESS:   17075376
LLC USEFUL LOAD PREFETCHES:       9220 PREFETCH ISSUED TO LOWER LEVEL:   17085359  ACCURACY: 0.0539643
LLC TIMELY PREFETCHES:       9220 LATE PREFETCHES: 0 DROPPED PREFETCHES: 0
LLC PREFETCHES SAME FILL-ORIGIN LEVEL: 0 DIFFERENT FILL-ORIGIN LEVEL: 0
LLC AVERAGE MISS LATENCY: 158.912 cycles
LLC RQ	ACCESS:     565215	FORWARD:          0	MERGED:          0	TO_CACHE:     565215
LLC WQ	ACCESS:     547137	FORWARD:          0	MERGED:          0	TO_CACHE:     547137
LLC PQ	ACCESS:   40452779	FORWARD:          0	MERGED:          0	TO_CACHE:   40452779

LLC Dense regions hint to LLC: 0

RAW hits: 8298952
Loads Generated: 91532965
Loads sent to L1D: 83234010
Stores Generated: 13518700
Stores sent to L1D: 13518702
Major fault: 0 Minor fault: 17320
Allocated PAGES: 17320

DRAM Statistics
 CHANNEL 0
 RQ ROW_BUFFER_HIT:   13114651  ROW_BUFFER_MISS:    4434286
 DBUS_CONGESTED:      13481
 WQ ROW_BUFFER_HIT:      84059  ROW_BUFFER_MISS:     458217  FULL:          0

 AVG_CONGESTED_CYCLE: 5
 All warmup complete: 2
Channel 0 Bank busy for read cycles: 0
Channel 0 Bank busy for write cycles: 0
Channel 0
Rank 0
0banks busy for read cycles: 475435
0banks busy for write cycles: 215
1banks busy for read cycles: 17147761
1banks busy for write cycles: 360494
2banks busy for read cycles: 32417354
2banks busy for write cycles: 337263
3banks busy for read cycles: 47888798
3banks busy for write cycles: 302592
4banks busy for read cycles: 55643934
4banks busy for write cycles: 295090
5banks busy for read cycles: 52304114
5banks busy for write cycles: 286122
6banks busy for read cycles: 41138623
6banks busy for write cycles: 378100
7banks busy for read cycles: 29256320
7banks busy for write cycles: 1498446
8banks busy for read cycles: 20968062
8banks busy for write cycles: 15894310

CPU 0 Branch Prediction Accuracy: 98.3708% MPKI: 2.3007 Average ROB Occupancy at Mispredict: 55.3146
Branch types
NOT_BRANCH: 163339845 81.6699%
BRANCH_DIRECT_JUMP: 8413979 4.20699%
BRANCH_INDIRECT: 0 0%
BRANCH_CONDITIONAL: 28243019 14.1215%
BRANCH_DIRECT_CALL: 1578 0.000789%
BRANCH_INDIRECT_CALL: 0 0%
BRANCH_RETURN: 1578 0.000789%
BRANCH_OTHER: 0 0%

DRAM PAGES: 1048576
Allocated PAGES: 17320
