
*** ChampSim Multicore Out-of-Order Simulator ***

Warmup Instructions: 50000000
Simulation Instructions: 200000000
Number of CPUs: 1
LLC sets: 2048
LLC ways: 16
Off-chip DRAM Size: 4096 MB Channels: 1 Width: 64-bit Data Rate: 6400 MT/s
argv[0]: ./ChampSim/Berti/bin/multiperspective_perceptron8kb-no-vberti-no-no-no-no-no-lru-lru-lru-srrip-drrip-lru-lru-lru-1core-no
argv[1]: -warmup_instructions
argv[2]: 50000000
argv[3]: -simulation_instructions
argv[4]: 200000000
argv[5]: -traces
argv[6]: traces/spec2k17_ten/605.mcf_s-1644B.champsimtrace.xz
CPU 0 runs traces/spec2k17_ten/605.mcf_s-1644B.champsimtrace.xz
.xz
CPU 0 Multiperspective perceptron branch predictor
BTB has LRU replacement policy
ITLB has LRU replacement policy
DTLB has LRU replacement policy
STLB has LRU replacement policy
L1I has LRU replacement policy
History Sets: 8
History Ways: 16
BERTI Size: 16
BERTI Stride Size: 16
L1D has LRU replacement policy
Initialize SRRIP state for L2C
Initialize DRRIP state for LLC
Heartbeat CPU 0 instructions: 10000003 cycles: 4934091 heartbeat IPC: 2.02672 cumulative IPC: 2.02672 (Simulation time: 0 hr 20 min 44 sec) 
Heartbeat CPU 0 instructions: 20000001 cycles: 9858968 heartbeat IPC: 2.03051 cumulative IPC: 2.02861 (Simulation time: 0 hr 33 min 39 sec) 
Heartbeat CPU 0 instructions: 30000001 cycles: 14782085 heartbeat IPC: 2.03123 cumulative IPC: 2.02948 (Simulation time: 0 hr 48 min 55 sec) 
Heartbeat CPU 0 instructions: 40000002 cycles: 19698452 heartbeat IPC: 2.03402 cumulative IPC: 2.03062 (Simulation time: 1 hr 7 min 35 sec) 
Heartbeat CPU 0 instructions: 50000000 cycles: 24608244 heartbeat IPC: 2.03675 cumulative IPC: 2.03184 (Simulation time: 1 hr 22 min 42 sec) 

Warmup complete CPU 0 instructions: 50000004 cycles: 24608245 (Simulation time: 1 hr 22 min 42 sec) 

Heartbeat CPU 0 instructions: 60000001 cycles: 87629224 heartbeat IPC: 0.158677 cumulative IPC: 0.158677 (Simulation time: 1 hr 43 min 59 sec) 
Heartbeat CPU 0 instructions: 70000000 cycles: 150958568 heartbeat IPC: 0.157905 cumulative IPC: 0.15829 (Simulation time: 2 hr 5 min 32 sec) 
Heartbeat CPU 0 instructions: 80000000 cycles: 214975728 heartbeat IPC: 0.156208 cumulative IPC: 0.15759 (Simulation time: 2 hr 31 min 46 sec) 
Heartbeat CPU 0 instructions: 90000000 cycles: 278785227 heartbeat IPC: 0.156716 cumulative IPC: 0.157371 (Simulation time: 2 hr 53 min 11 sec) 
Heartbeat CPU 0 instructions: 100000001 cycles: 344018164 heartbeat IPC: 0.153297 cumulative IPC: 0.156539 (Simulation time: 3 hr 13 min 24 sec) 
Heartbeat CPU 0 instructions: 110000000 cycles: 409313962 heartbeat IPC: 0.153149 cumulative IPC: 0.155963 (Simulation time: 3 hr 27 min 18 sec) 
Heartbeat CPU 0 instructions: 120000000 cycles: 474688707 heartbeat IPC: 0.152964 cumulative IPC: 0.155528 (Simulation time: 3 hr 37 min 52 sec) 
Heartbeat CPU 0 instructions: 130000000 cycles: 539481154 heartbeat IPC: 0.154339 cumulative IPC: 0.155378 (Simulation time: 3 hr 44 min 46 sec) 
Heartbeat CPU 0 instructions: 140000003 cycles: 602737266 heartbeat IPC: 0.158088 cumulative IPC: 0.155675 (Simulation time: 3 hr 48 min 27 sec) 
Heartbeat CPU 0 instructions: 150000002 cycles: 662452548 heartbeat IPC: 0.167461 cumulative IPC: 0.156778 (Simulation time: 3 hr 51 min 10 sec) 
Heartbeat CPU 0 instructions: 160000002 cycles: 720909384 heartbeat IPC: 0.171066 cumulative IPC: 0.157978 (Simulation time: 3 hr 53 min 13 sec) 
Heartbeat CPU 0 instructions: 170000002 cycles: 781881790 heartbeat IPC: 0.164009 cumulative IPC: 0.158463 (Simulation time: 3 hr 55 min 9 sec) 
Heartbeat CPU 0 instructions: 180000000 cycles: 842910039 heartbeat IPC: 0.163859 cumulative IPC: 0.158866 (Simulation time: 3 hr 57 min 4 sec) 
Heartbeat CPU 0 instructions: 190000000 cycles: 903536189 heartbeat IPC: 0.164945 cumulative IPC: 0.159285 (Simulation time: 3 hr 58 min 58 sec) 
Heartbeat CPU 0 instructions: 200000000 cycles: 965575023 heartbeat IPC: 0.161189 cumulative IPC: 0.159411 (Simulation time: 4 hr 0 min 54 sec) 
Heartbeat CPU 0 instructions: 210000000 cycles: 1027707059 heartbeat IPC: 0.160948 cumulative IPC: 0.159506 (Simulation time: 4 hr 2 min 51 sec) 
Heartbeat CPU 0 instructions: 220000000 cycles: 1089759027 heartbeat IPC: 0.161155 cumulative IPC: 0.159602 (Simulation time: 4 hr 4 min 48 sec) 
Heartbeat CPU 0 instructions: 230000001 cycles: 1151677880 heartbeat IPC: 0.161502 cumulative IPC: 0.159706 (Simulation time: 4 hr 6 min 46 sec) 
Heartbeat CPU 0 instructions: 240000002 cycles: 1214019135 heartbeat IPC: 0.160407 cumulative IPC: 0.159743 (Simulation time: 4 hr 8 min 43 sec) 
Heartbeat CPU 0 instructions: 250000001 cycles: 1276410590 heartbeat IPC: 0.160278 cumulative IPC: 0.15977 (Simulation time: 4 hr 10 min 39 sec) 
Finished CPU 0 instructions: 200000001 cycles: 1251802346 cumulative IPC: 0.15977 (Simulation time: 4 hr 10 min 39 sec) 

ChampSim completed all CPUs

Region of Interest Statistics

CPU 0 cumulative IPC: 0.15977 instructions: 200000001 cycles: 1251802346
ITLB TOTAL     ACCESS:   34930326  HIT:   34930326  MISS:          0  HIT %:        100  MISS %:          0   MPKI: 0
ITLB LOAD TRANSLATION ACCESS:   34930326  HIT:   34930326  MISS:          0  HIT %:        100  MISS %:          0   MPKI: 0
ITLB PREFETCH  REQUESTED:          0  ISSUED:          0  USEFUL:          0  USELESS:          0
ITLB USEFUL LOAD PREFETCHES:          0 PREFETCH ISSUED TO LOWER LEVEL:          0  ACCURACY: -nan
ITLB TIMELY PREFETCHES:          0 LATE PREFETCHES: 0 DROPPED PREFETCHES: 0
ITLB PREFETCHES SAME FILL-ORIGIN LEVEL: 0 DIFFERENT FILL-ORIGIN LEVEL: 0
ITLB AVERAGE MISS LATENCY: -nan cycles
ITLB RQ	ACCESS:   35036139	FORWARD:          0	MERGED:     105815	TO_CACHE:   34930324

DTLB TOTAL     ACCESS:   81893223  HIT:   76254750  MISS:    5638473  HIT %:    93.1148  MISS %:    6.88515   MPKI: 28.1924
DTLB LOAD TRANSLATION ACCESS:   81893223  HIT:   76254750  MISS:    5638473  HIT %:    93.1148  MISS %:    6.88515   MPKI: 28.1924
DTLB PREFETCH  REQUESTED:          0  ISSUED:          0  USEFUL:          0  USELESS:          0
DTLB USEFUL LOAD PREFETCHES:          0 PREFETCH ISSUED TO LOWER LEVEL:          0  ACCURACY: -nan
DTLB TIMELY PREFETCHES:          0 LATE PREFETCHES: 0 DROPPED PREFETCHES: 0
DTLB PREFETCHES SAME FILL-ORIGIN LEVEL: 0 DIFFERENT FILL-ORIGIN LEVEL: 0
DTLB AVERAGE MISS LATENCY: 936.39 cycles
DTLB RQ	ACCESS:  128699072	FORWARD:          0	MERGED:   15454425	TO_CACHE:  113244647

STLB TOTAL     ACCESS:   19019590  HIT:   14190897  MISS:    4828693  HIT %:     74.612  MISS %:     25.388   MPKI: 24.1435
STLB LOAD TRANSLATION ACCESS:    5638473  HIT:     833346  MISS:    4805127  HIT %:    14.7796  MISS %:    85.2204   MPKI: 24.0256
STLB TRANSLATION FROM L1D PREFETCHER ACCESS:   13381117  HIT:   13357551  MISS:      23566  HIT %:    99.8239  MISS %:   0.176114   MPKI: 0.11783
STLB PREFETCH  REQUESTED:          0  ISSUED:          0  USEFUL:      21622  USELESS:       1944
STLB USEFUL LOAD PREFETCHES:      21622 PREFETCH ISSUED TO LOWER LEVEL:          0  ACCURACY: inf
STLB TIMELY PREFETCHES:      21622 LATE PREFETCHES: 74290 DROPPED PREFETCHES: 1209693
STLB PREFETCHES SAME FILL-ORIGIN LEVEL: 0 DIFFERENT FILL-ORIGIN LEVEL: 0
STLB AVERAGE MISS LATENCY: 1085.62 cycles
STLB RQ	ACCESS:   40924299	FORWARD:          0	MERGED:   19959129	TO_CACHE:   20965170

STLB Hit, L1D data hit: 0
STLB Hit, L2C data hit: 0
STLB Hit, LLC data hit: 0
STLB Hit, LLC data miss: 0
STLB STLB hints to L2: 0
L1D TOTAL     ACCESS:  122096750  HIT:  104139882  MISS:   17956868  HIT %:    85.2929  MISS %:    14.7071   MPKI: 89.7843
L1D LOAD      ACCESS:   58613957  HIT:   53838723  MISS:    4775234  HIT %:    91.8531  MISS %:    8.14692   MPKI: 23.8762
L1D RFO       ACCESS:   39360624  HIT:   30614003  MISS:    8746621  HIT %:    77.7782  MISS %:    22.2218   MPKI: 43.7331
L1D PREFETCH  ACCESS:   24122169  HIT:   19687156  MISS:    4435013  HIT %:    81.6144  MISS %:    18.3856   MPKI: 22.1751
L1D PREFETCH  REQUESTED:  137605017  ISSUED:   84384823  USEFUL:    4423836  USELESS:      11170
L1D USEFUL LOAD PREFETCHES:    4423836 PREFETCH ISSUED TO LOWER LEVEL:    6974670  ACCURACY: 63.4272
L1D TIMELY PREFETCHES:    4423836 LATE PREFETCHES: 133156 DROPPED PREFETCHES: 4820316
L1D PREFETCHES SAME FILL-ORIGIN LEVEL: 4568975 DIFFERENT FILL-ORIGIN LEVEL: 2405695
L1D AVERAGE MISS LATENCY: 288.086 cycles
L1D RQ	ACCESS:   77850365	FORWARD:          0	MERGED:   17720964	TO_CACHE:   58730996
L1D WQ	ACCESS:   69973103	FORWARD:    1398481	MERGED:       5027	TO_CACHE:   69968076
L1D PQ	ACCESS:   49099002	FORWARD:          0	MERGED:   13813105	TO_CACHE:   35285821

L1D UNIQUE REGIONS ACCESSED: 0
L1D REGIONS CONFLICTS: 0
L1D Cross Page Prefetch Requests: 13551170
L1D Same Page Prefetch Requests: 59688699
L1D ROI Sum of L1D PQ occupancy: 11538492697
L1D PREFETCHES PUSHED FROM L2C: 0
L1I TOTAL     ACCESS:   35036141  HIT:   35036141  MISS:          0  HIT %:        100  MISS %:          0   MPKI: 0
L1I LOAD      ACCESS:   35036141  HIT:   35036141  MISS:          0  HIT %:        100  MISS %:          0   MPKI: 0
L1I PREFETCH  REQUESTED:          0  ISSUED:          0  USEFUL:          0  USELESS:          0
L1I USEFUL LOAD PREFETCHES:          0 PREFETCH ISSUED TO LOWER LEVEL:          0  ACCURACY: -nan
L1I TIMELY PREFETCHES:          0 LATE PREFETCHES: 0 DROPPED PREFETCHES: 0
L1I PREFETCHES SAME FILL-ORIGIN LEVEL: 0 DIFFERENT FILL-ORIGIN LEVEL: 0
L1I AVERAGE MISS LATENCY: -nan cycles
L1I RQ	ACCESS:   48347990	FORWARD:          0	MERGED:   13311851	TO_CACHE:   35036139

BTB TOTAL     ACCESS:   20480033  HIT:   20480028  MISS:          5  HIT %:        100  MISS %: 2.4414e-05   MPKI: 2.5e-05
BTB BRANCH_DIRECT_JUMP	ACCESS:    2986815  HIT:    2986814  MISS:          1
BTB BRANCH_INDIRECT	ACCESS:          0  HIT:          0  MISS:          0
BTB BRANCH_CONDITIONAL	ACCESS:    8746594  HIT:    8746592  MISS:          2
BTB BRANCH_DIRECT_CALL	ACCESS:    4373312  HIT:    4373311  MISS:          1
BTB BRANCH_INDIRECT_CALL	ACCESS:          0  HIT:          0  MISS:          0
BTB BRANCH_RETURN	ACCESS:    4373312  HIT:    4373311  MISS:          1
BTB BRANCH_OTHER ACCESS:          0  HIT:          0  MISS:          0

L2C TOTAL     ACCESS:   46499538  HIT:   23312209  MISS:   23187329  HIT %:    50.1343  MISS %:    49.8657   MPKI: 115.937
L2C LOAD      ACCESS:    4642051  HIT:    1454688  MISS:    3187363  HIT %:    31.3372  MISS %:    68.6628   MPKI: 15.9368
L2C DATA LOAD MPKI: 15.9368
L2C INSTRUCTION LOAD MPKI: 0
L2C RFO       ACCESS:    8746621  HIT:       2525  MISS:    8744096  HIT %:  0.0288683  MISS %:    99.9711   MPKI: 43.7205
L2C PREFETCH  ACCESS:    6569938  HIT:    1122031  MISS:    5447907  HIT %:    17.0783  MISS %:    82.9217   MPKI: 27.2395
L2C DATA PREFETCH MPKI: 27.2395
L2C INSTRUCTION PREFETCH MPKI: 0
L2C WRITEBACK ACCESS:   17945698  HIT:   16429521  MISS:    1516177  HIT %:    91.5513  MISS %:    8.44869   MPKI: 7.58088
L2C LOAD TRANSLATION ACCESS:    6874582  HIT:    2597372  MISS:    4277210  HIT %:    37.7823  MISS %:    62.2177   MPKI: 21.386
L2C TRANSLATION FROM L1D PREFETCHER ACCESS:    1720648  HIT:    1706072  MISS:      14576  HIT %:    99.1529  MISS %:   0.847123   MPKI: 0.07288
L2C PREFETCH  REQUESTED:          0  ISSUED:          0  USEFUL:     273397  USELESS:    5189321
L2C USEFUL LOAD PREFETCHES:     273397 PREFETCH ISSUED TO LOWER LEVEL:    5477930  ACCURACY: 4.99088
L2C TIMELY PREFETCHES:     273397 LATE PREFETCHES: 30023 DROPPED PREFETCHES: 0
L2C PREFETCHES SAME FILL-ORIGIN LEVEL: 1807785 DIFFERENT FILL-ORIGIN LEVEL: 0
L2C AVERAGE MISS LATENCY: 286.46 cycles
L2C RQ	ACCESS:   21983931	FORWARD:          0	MERGED:          0	TO_CACHE:   21983904
L2C WQ	ACCESS:   17945698	FORWARD:         27	MERGED:          0	TO_CACHE:   17945698
L2C PQ	ACCESS:    6951463	FORWARD:          0	MERGED:       2420	TO_CACHE:    6949043

L2C Instructions Evicting Data 0
L2C Translations Evicting Data 3478142
L2C Data Evicting Data 14033026
L2C Instructions Evicting Instructions 0
L2C Translations Evicting Instructions 0
L2C Data Evicting Instructions 0
L2C Instructions Evicting Translations 0
L2C Translations Evicting Translations 813644
L2C Data Evicting Translations 3346340
L2C Dense regions hint from L2: 0
PSCL5 TOTAL     ACCESS:    6102156  HIT:    6102156  MISS:          0  HIT %:        100  MISS %:          0   MPKI: 0
PSCL5 LOAD TRANSLATION ACCESS:    4794607  HIT:    4794607  MISS:          0  HIT %:        100  MISS %:          0   MPKI: 0
PSCL5 TRANSLATION FROM L1D PREFETCHER ACCESS:    1307549  HIT:    1307549  MISS:          0  HIT %:        100  MISS %:          0   MPKI: 0
PSCL5 PREFETCH  REQUESTED:          0  ISSUED:          0  USEFUL:          0  USELESS:          0
PSCL5 USEFUL LOAD PREFETCHES:          0 PREFETCH ISSUED TO LOWER LEVEL:          0  ACCURACY: -nan
PSCL5 TIMELY PREFETCHES:          0 LATE PREFETCHES: 0 DROPPED PREFETCHES: 0
PSCL5 PREFETCHES SAME FILL-ORIGIN LEVEL: 0 DIFFERENT FILL-ORIGIN LEVEL: 0

PSCL4 TOTAL     ACCESS:    6102156  HIT:    6102156  MISS:          0  HIT %:        100  MISS %:          0   MPKI: 0
PSCL4 LOAD TRANSLATION ACCESS:    4794607  HIT:    4794607  MISS:          0  HIT %:        100  MISS %:          0   MPKI: 0
PSCL4 TRANSLATION FROM L1D PREFETCHER ACCESS:    1307549  HIT:    1307549  MISS:          0  HIT %:        100  MISS %:          0   MPKI: 0
PSCL4 PREFETCH  REQUESTED:          0  ISSUED:          0  USEFUL:          0  USELESS:          0
PSCL4 USEFUL LOAD PREFETCHES:          0 PREFETCH ISSUED TO LOWER LEVEL:          0  ACCURACY: -nan
PSCL4 TIMELY PREFETCHES:          0 LATE PREFETCHES: 0 DROPPED PREFETCHES: 0
PSCL4 PREFETCHES SAME FILL-ORIGIN LEVEL: 0 DIFFERENT FILL-ORIGIN LEVEL: 0

PSCL3 TOTAL     ACCESS:    6102156  HIT:    6102156  MISS:          0  HIT %:        100  MISS %:          0   MPKI: 0
PSCL3 LOAD TRANSLATION ACCESS:    4794607  HIT:    4794607  MISS:          0  HIT %:        100  MISS %:          0   MPKI: 0
PSCL3 TRANSLATION FROM L1D PREFETCHER ACCESS:    1307549  HIT:    1307549  MISS:          0  HIT %:        100  MISS %:          0   MPKI: 0
PSCL3 PREFETCH  REQUESTED:          0  ISSUED:          0  USEFUL:          0  USELESS:          0
PSCL3 USEFUL LOAD PREFETCHES:          0 PREFETCH ISSUED TO LOWER LEVEL:          0  ACCURACY: -nan
PSCL3 TIMELY PREFETCHES:          0 LATE PREFETCHES: 0 DROPPED PREFETCHES: 0
PSCL3 PREFETCHES SAME FILL-ORIGIN LEVEL: 0 DIFFERENT FILL-ORIGIN LEVEL: 0

PSCL2 TOTAL     ACCESS:    5691822  HIT:    3605914  MISS:    2085908  HIT %:    63.3525  MISS %:    36.6475   MPKI: 10.4295
PSCL2 LOAD TRANSLATION ACCESS:    4800389  HIT:    2714481  MISS:    2085908  HIT %:    56.5471  MISS %:    43.4529   MPKI: 10.4295
PSCL2 TRANSLATION FROM L1D PREFETCHER ACCESS:     891433  HIT:     891433  MISS:          0  HIT %:        100  MISS %:          0   MPKI: 0
PSCL2 PREFETCH  REQUESTED:          0  ISSUED:          0  USEFUL:          0  USELESS:          0
PSCL2 USEFUL LOAD PREFETCHES:          0 PREFETCH ISSUED TO LOWER LEVEL:          0  ACCURACY: -nan
PSCL2 TIMELY PREFETCHES:          0 LATE PREFETCHES: 0 DROPPED PREFETCHES: 0
PSCL2 PREFETCHES SAME FILL-ORIGIN LEVEL: 0 DIFFERENT FILL-ORIGIN LEVEL: 0

LLC TOTAL     ACCESS:   38421080  HIT:   19964481  MISS:   18456599  HIT %:    51.9623  MISS %:    48.0377   MPKI: 92.283
LLC LOAD      ACCESS:    3157302  HIT:    1862902  MISS:    1294400  HIT %:     59.003  MISS %:     40.997   MPKI: 6.472
LLC RFO       ACCESS:    8744096  HIT:      45533  MISS:    8698563  HIT %:   0.520729  MISS %:    99.4793   MPKI: 43.4928
LLC PREFETCH  ACCESS:    5477928  HIT:     357395  MISS:    5120533  HIT %:    6.52427  MISS %:    93.4757   MPKI: 25.6027
LLC WRITEBACK ACCESS:   16749968  HIT:   16471067  MISS:     278901  HIT %:    98.3349  MISS %:    1.66508   MPKI: 1.3945
LLC LOAD TRANSLATION ACCESS:    4277210  HIT:    1224290  MISS:    3052920  HIT %:    28.6236  MISS %:    71.3764   MPKI: 15.2646
LLC TRANSLATION FROM L1D PREFETCHER ACCESS:      14576  HIT:       3294  MISS:      11282  HIT %:    22.5988  MISS %:    77.4012   MPKI: 0.05641
LLC PREFETCH  REQUESTED:          0  ISSUED:          0  USEFUL:      56605  USELESS:    5075205
LLC USEFUL LOAD PREFETCHES:      56605 PREFETCH ISSUED TO LOWER LEVEL:    5120533  ACCURACY: 1.10545
LLC TIMELY PREFETCHES:      56605 LATE PREFETCHES: 0 DROPPED PREFETCHES: 0
LLC PREFETCHES SAME FILL-ORIGIN LEVEL: 0 DIFFERENT FILL-ORIGIN LEVEL: 0
LLC AVERAGE MISS LATENCY: 324.853 cycles
LLC RQ	ACCESS:   16193224	FORWARD:          0	MERGED:          0	TO_CACHE:   16193186
LLC WQ	ACCESS:   16749968	FORWARD:         40	MERGED:          0	TO_CACHE:   16749968
LLC PQ	ACCESS:    5477930	FORWARD:          0	MERGED:          0	TO_CACHE:    5477928

LLC Dense regions hint to LLC: 0

RAW hits: 5242695
Loads Generated: 83093059
Loads sent to L1D: 77850365
Stores Generated: 69973106
Stores sent to L1D: 69973103
Major fault: 0 Minor fault: 318411
Allocated PAGES: 318411

DRAM Statistics
 CHANNEL 0
 RQ ROW_BUFFER_HIT:    1308401  ROW_BUFFER_MISS:   16866446
 DBUS_CONGESTED:         71
 WQ ROW_BUFFER_HIT:    3041405  ROW_BUFFER_MISS:   11683992  FULL:          0

 AVG_CONGESTED_CYCLE: 4
 All warmup complete: 2
Channel 0 Bank busy for read cycles: 0
Channel 0 Bank busy for write cycles: 0
Channel 0
Rank 0
0banks busy for read cycles: 1790166
0banks busy for write cycles: 14
1banks busy for read cycles: 125060266
1banks busy for write cycles: 2374801
2banks busy for read cycles: 145855750
2banks busy for write cycles: 2381461
3banks busy for read cycles: 230559912
3banks busy for write cycles: 2456748
4banks busy for read cycles: 132742030
4banks busy for write cycles: 4597013
5banks busy for read cycles: 81973526
5banks busy for write cycles: 9348524
6banks busy for read cycles: 47797051
6banks busy for write cycles: 23019401
7banks busy for read cycles: 29197143
7banks busy for write cycles: 87487888
8banks busy for read cycles: 26288922
8banks busy for write cycles: 298871731

CPU 0 Branch Prediction Accuracy: 90.9054% MPKI: 5.96601 Average ROB Occupancy at Mispredict: 113.949
Branch types
NOT_BRANCH: 175146304 87.5732%
BRANCH_DIRECT_JUMP: 2986815 1.49341%
BRANCH_INDIRECT: 0 0%
BRANCH_CONDITIONAL: 13119937 6.55997%
BRANCH_DIRECT_CALL: 4373312 2.18666%
BRANCH_INDIRECT_CALL: 0 0%
BRANCH_RETURN: 4373312 2.18666%
BRANCH_OTHER: 0 0%

DRAM PAGES: 1048576
Allocated PAGES: 318411
