
*** ChampSim Multicore Out-of-Order Simulator ***

Warmup Instructions: 50000000
Simulation Instructions: 200000000
Number of CPUs: 1
LLC sets: 2048
LLC ways: 16
Off-chip DRAM Size: 4096 MB Channels: 1 Width: 64-bit Data Rate: 6400 MT/s
argv[0]: ./ChampSim/Berti/bin/multiperspective_perceptron8kb-no-vberti-no-no-no-no-no-lru-lru-lru-srrip-drrip-lru-lru-lru-1core-no
argv[1]: -warmup_instructions
argv[2]: 50000000
argv[3]: -simulation_instructions
argv[4]: 200000000
argv[5]: -traces
argv[6]: traces/spec2k17_ten/605.mcf_s-472B.champsimtrace.xz
CPU 0 runs traces/spec2k17_ten/605.mcf_s-472B.champsimtrace.xz
.xz
CPU 0 Multiperspective perceptron branch predictor
BTB has LRU replacement policy
ITLB has LRU replacement policy
DTLB has LRU replacement policy
STLB has LRU replacement policy
L1I has LRU replacement policy
History Sets: 8
History Ways: 16
BERTI Size: 16
BERTI Stride Size: 16
L1D has LRU replacement policy
Initialize SRRIP state for L2C
Initialize DRRIP state for LLC
Heartbeat CPU 0 instructions: 10000001 cycles: 3220883 heartbeat IPC: 3.10474 cumulative IPC: 3.10474 (Simulation time: 0 hr 4 min 8 sec) 
Heartbeat CPU 0 instructions: 20000003 cycles: 6574777 heartbeat IPC: 2.98161 cumulative IPC: 3.04193 (Simulation time: 0 hr 15 min 12 sec) 
Heartbeat CPU 0 instructions: 30000001 cycles: 9997898 heartbeat IPC: 2.92131 cumulative IPC: 3.00063 (Simulation time: 0 hr 24 min 57 sec) 
Heartbeat CPU 0 instructions: 40000003 cycles: 13244879 heartbeat IPC: 3.07978 cumulative IPC: 3.02004 (Simulation time: 0 hr 32 min 0 sec) 
Heartbeat CPU 0 instructions: 50000000 cycles: 16503753 heartbeat IPC: 3.06854 cumulative IPC: 3.02961 (Simulation time: 0 hr 40 min 1 sec) 

Warmup complete CPU 0 instructions: 50000004 cycles: 16503754 (Simulation time: 0 hr 40 min 1 sec) 

Heartbeat CPU 0 instructions: 60000001 cycles: 35234435 heartbeat IPC: 0.533883 cumulative IPC: 0.533883 (Simulation time: 0 hr 51 min 36 sec) 
Heartbeat CPU 0 instructions: 70000002 cycles: 54166028 heartbeat IPC: 0.528218 cumulative IPC: 0.531035 (Simulation time: 1 hr 4 min 58 sec) 
Heartbeat CPU 0 instructions: 80000003 cycles: 74094799 heartbeat IPC: 0.501787 cumulative IPC: 0.520914 (Simulation time: 1 hr 16 min 33 sec) 
Heartbeat CPU 0 instructions: 90000000 cycles: 92346752 heartbeat IPC: 0.547886 cumulative IPC: 0.527405 (Simulation time: 1 hr 25 min 31 sec) 
Heartbeat CPU 0 instructions: 100000002 cycles: 112017596 heartbeat IPC: 0.508367 cumulative IPC: 0.523484 (Simulation time: 1 hr 38 min 11 sec) 
Heartbeat CPU 0 instructions: 110000000 cycles: 132676126 heartbeat IPC: 0.484061 cumulative IPC: 0.516474 (Simulation time: 1 hr 47 min 32 sec) 
Heartbeat CPU 0 instructions: 120000002 cycles: 153552199 heartbeat IPC: 0.479017 cumulative IPC: 0.510768 (Simulation time: 1 hr 56 min 14 sec) 
Heartbeat CPU 0 instructions: 130000002 cycles: 174738277 heartbeat IPC: 0.472008 cumulative IPC: 0.505579 (Simulation time: 2 hr 4 min 20 sec) 
Heartbeat CPU 0 instructions: 140000003 cycles: 194864029 heartbeat IPC: 0.496876 cumulative IPC: 0.504597 (Simulation time: 2 hr 14 min 17 sec) 
Heartbeat CPU 0 instructions: 150000002 cycles: 214578659 heartbeat IPC: 0.507237 cumulative IPC: 0.50486 (Simulation time: 2 hr 24 min 53 sec) 
Heartbeat CPU 0 instructions: 160000003 cycles: 236113542 heartbeat IPC: 0.464363 cumulative IPC: 0.500888 (Simulation time: 2 hr 34 min 19 sec) 
Heartbeat CPU 0 instructions: 170000001 cycles: 257227244 heartbeat IPC: 0.473626 cumulative IPC: 0.498497 (Simulation time: 2 hr 44 min 55 sec) 
Heartbeat CPU 0 instructions: 180000000 cycles: 274877429 heartbeat IPC: 0.566566 cumulative IPC: 0.503147 (Simulation time: 2 hr 55 min 15 sec) 
Heartbeat CPU 0 instructions: 190000000 cycles: 295017591 heartbeat IPC: 0.49652 cumulative IPC: 0.502668 (Simulation time: 3 hr 8 min 29 sec) 
Heartbeat CPU 0 instructions: 200000002 cycles: 313344802 heartbeat IPC: 0.545637 cumulative IPC: 0.505321 (Simulation time: 3 hr 15 min 4 sec) 
Heartbeat CPU 0 instructions: 210000003 cycles: 334533701 heartbeat IPC: 0.471945 cumulative IPC: 0.503097 (Simulation time: 3 hr 23 min 19 sec) 
Heartbeat CPU 0 instructions: 220000000 cycles: 354298763 heartbeat IPC: 0.505943 cumulative IPC: 0.503264 (Simulation time: 3 hr 28 min 8 sec) 
Heartbeat CPU 0 instructions: 230000001 cycles: 373700555 heartbeat IPC: 0.515416 cumulative IPC: 0.503924 (Simulation time: 3 hr 32 min 43 sec) 
Heartbeat CPU 0 instructions: 240000002 cycles: 393977921 heartbeat IPC: 0.493161 cumulative IPC: 0.503346 (Simulation time: 3 hr 37 min 29 sec) 
Heartbeat CPU 0 instructions: 250000000 cycles: 410499157 heartbeat IPC: 0.605281 cumulative IPC: 0.50762 (Simulation time: 3 hr 40 min 55 sec) 
Finished CPU 0 instructions: 200000000 cycles: 393995405 cumulative IPC: 0.50762 (Simulation time: 3 hr 40 min 55 sec) 

ChampSim completed all CPUs

Region of Interest Statistics

CPU 0 cumulative IPC: 0.50762 instructions: 200000000 cycles: 393995405
ITLB TOTAL     ACCESS:   33779572  HIT:   33779572  MISS:          0  HIT %:        100  MISS %:          0   MPKI: 0
ITLB LOAD TRANSLATION ACCESS:   33779572  HIT:   33779572  MISS:          0  HIT %:        100  MISS %:          0   MPKI: 0
ITLB PREFETCH  REQUESTED:          0  ISSUED:          0  USEFUL:          0  USELESS:          0
ITLB USEFUL LOAD PREFETCHES:          0 PREFETCH ISSUED TO LOWER LEVEL:          0  ACCURACY: -nan
ITLB TIMELY PREFETCHES:          0 LATE PREFETCHES: 0 DROPPED PREFETCHES: 0
ITLB PREFETCHES SAME FILL-ORIGIN LEVEL: 0 DIFFERENT FILL-ORIGIN LEVEL: 0
ITLB AVERAGE MISS LATENCY: -nan cycles
ITLB RQ	ACCESS:   43738801	FORWARD:          0	MERGED:    9959230	TO_CACHE:   33779571

DTLB TOTAL     ACCESS:   53753323  HIT:   53037417  MISS:     715906  HIT %:    98.6682  MISS %:    1.33184   MPKI: 3.57953
DTLB LOAD TRANSLATION ACCESS:   53753323  HIT:   53037417  MISS:     715906  HIT %:    98.6682  MISS %:    1.33184   MPKI: 3.57953
DTLB PREFETCH  REQUESTED:          0  ISSUED:          0  USEFUL:          0  USELESS:          0
DTLB USEFUL LOAD PREFETCHES:          0 PREFETCH ISSUED TO LOWER LEVEL:          0  ACCURACY: -nan
DTLB TIMELY PREFETCHES:          0 LATE PREFETCHES: 0 DROPPED PREFETCHES: 0
DTLB PREFETCHES SAME FILL-ORIGIN LEVEL: 0 DIFFERENT FILL-ORIGIN LEVEL: 0
DTLB AVERAGE MISS LATENCY: 19.3332 cycles
DTLB RQ	ACCESS:   87763725	FORWARD:          0	MERGED:   33969634	TO_CACHE:   53794091

STLB TOTAL     ACCESS:   14060085  HIT:   13800723  MISS:     259362  HIT %:    98.1553  MISS %:    1.84467   MPKI: 1.29681
STLB LOAD TRANSLATION ACCESS:     715906  HIT:     661350  MISS:      54556  HIT %:    92.3794  MISS %:    7.62055   MPKI: 0.27278
STLB TRANSLATION FROM L1D PREFETCHER ACCESS:   13344179  HIT:   13139373  MISS:     204806  HIT %:    98.4652  MISS %:     1.5348   MPKI: 1.02403
STLB PREFETCH  REQUESTED:          0  ISSUED:          0  USEFUL:     204785  USELESS:         21
STLB USEFUL LOAD PREFETCHES:     204785 PREFETCH ISSUED TO LOWER LEVEL:          0  ACCURACY: inf
STLB TIMELY PREFETCHES:     204785 LATE PREFETCHES: 10386 DROPPED PREFETCHES: 331556
STLB PREFETCHES SAME FILL-ORIGIN LEVEL: 0 DIFFERENT FILL-ORIGIN LEVEL: 0
STLB AVERAGE MISS LATENCY: 67.4099 cycles
STLB RQ	ACCESS:   58320713	FORWARD:          0	MERGED:   43748823	TO_CACHE:   14571890

STLB Hit, L1D data hit: 0
STLB Hit, L2C data hit: 0
STLB Hit, LLC data hit: 0
STLB Hit, LLC data miss: 0
STLB STLB hints to L2: 0
L1D TOTAL     ACCESS:  115528781  HIT:  104497726  MISS:   11031055  HIT %:    90.4517  MISS %:    9.54832   MPKI: 55.1553
L1D LOAD      ACCESS:   42084027  HIT:   38880292  MISS:    3203735  HIT %:    92.3873  MISS %:    7.61271   MPKI: 16.0187
L1D RFO       ACCESS:   44022580  HIT:   43584301  MISS:     438279  HIT %:    99.0044  MISS %:   0.995578   MPKI: 2.19139
L1D PREFETCH  ACCESS:   29422174  HIT:   22033133  MISS:    7389041  HIT %:    74.8861  MISS %:    25.1139   MPKI: 36.9452
L1D PREFETCH  REQUESTED:  166006284  ISSUED:  122583193  USEFUL:    6852250  USELESS:     536877
L1D USEFUL LOAD PREFETCHES:    6852250 PREFETCH ISSUED TO LOWER LEVEL:   33765722  ACCURACY: 20.2935
L1D TIMELY PREFETCHES:    6852250 LATE PREFETCHES: 528320 DROPPED PREFETCHES: 1380087
L1D PREFETCHES SAME FILL-ORIGIN LEVEL: 8188982 DIFFERENT FILL-ORIGIN LEVEL: 25576740
L1D AVERAGE MISS LATENCY: 84.815 cycles
L1D RQ	ACCESS:   66916403	FORWARD:          0	MERGED:   24589758	TO_CACHE:   42224211
L1D WQ	ACCESS:   46248418	FORWARD:     102434	MERGED:     708904	TO_CACHE:   45539514
L1D PQ	ACCESS:   64978386	FORWARD:          0	MERGED:    7373579	TO_CACHE:   57604807

L1D UNIQUE REGIONS ACCESSED: 0
L1D REGIONS CONFLICTS: 0
L1D Cross Page Prefetch Requests: 18305017
L1D Same Page Prefetch Requests: 56066869
L1D ROI Sum of L1D PQ occupancy: 1082896085
L1D PREFETCHES PUSHED FROM L2C: 0
L1I TOTAL     ACCESS:   43738800  HIT:   43738794  MISS:          6  HIT %:        100  MISS %: 1.37178e-05   MPKI: 3e-05
L1I LOAD      ACCESS:   43738800  HIT:   43738794  MISS:          6  HIT %:        100  MISS %: 1.37178e-05   MPKI: 3e-05
L1I PREFETCH  REQUESTED:          0  ISSUED:          0  USEFUL:          0  USELESS:          0
L1I USEFUL LOAD PREFETCHES:          0 PREFETCH ISSUED TO LOWER LEVEL:          0  ACCURACY: -nan
L1I TIMELY PREFETCHES:          0 LATE PREFETCHES: 0 DROPPED PREFETCHES: 0
L1I PREFETCHES SAME FILL-ORIGIN LEVEL: 0 DIFFERENT FILL-ORIGIN LEVEL: 0
L1I AVERAGE MISS LATENCY: 214 cycles
L1I RQ	ACCESS:   61519442	FORWARD:          0	MERGED:   17780641	TO_CACHE:   43738801

BTB TOTAL     ACCESS:   25427201  HIT:   25427162  MISS:         39  HIT %:    99.9998  MISS %: 0.000153379   MPKI: 0.000195
BTB BRANCH_DIRECT_JUMP	ACCESS:    2120381  HIT:    2120375  MISS:          6
BTB BRANCH_INDIRECT	ACCESS:          0  HIT:          0  MISS:          0
BTB BRANCH_CONDITIONAL	ACCESS:   23306339  HIT:   23306311  MISS:         28
BTB BRANCH_DIRECT_CALL	ACCESS:        241  HIT:        238  MISS:          3
BTB BRANCH_INDIRECT_CALL	ACCESS:          0  HIT:          0  MISS:          0
BTB BRANCH_RETURN	ACCESS:        240  HIT:        238  MISS:          2
BTB BRANCH_OTHER ACCESS:          0  HIT:          0  MISS:          0

L2C TOTAL     ACCESS:   28666192  HIT:   15613898  MISS:   13052294  HIT %:     54.468  MISS %:     45.532   MPKI: 65.2615
L2C LOAD      ACCESS:    2675363  HIT:    1776379  MISS:     898984  HIT %:    66.3977  MISS %:    33.6023   MPKI: 4.49492
L2C DATA LOAD MPKI: 4.49489
L2C INSTRUCTION LOAD MPKI: 3e-05
L2C RFO       ACCESS:     438231  HIT:      26304  MISS:     411927  HIT %:    6.00231  MISS %:    93.9977   MPKI: 2.05964
L2C PREFETCH  ACCESS:   23975935  HIT:   12298643  MISS:   11677292  HIT %:    51.2958  MISS %:    48.7042   MPKI: 58.3865
L2C DATA PREFETCH MPKI: 58.3865
L2C INSTRUCTION PREFETCH MPKI: 0
L2C WRITEBACK ACCESS:     963711  HIT:     938535  MISS:      25176  HIT %:    97.3876  MISS %:     2.6124   MPKI: 0.12588
L2C LOAD TRANSLATION ACCESS:      54270  HIT:      46629  MISS:       7641  HIT %:    85.9204  MISS %:    14.0796   MPKI: 0.038205
L2C TRANSLATION FROM L1D PREFETCHER ACCESS:     558682  HIT:     527408  MISS:      31274  HIT %:    94.4022  MISS %:    5.59782   MPKI: 0.15637
L2C PREFETCH  REQUESTED:          0  ISSUED:          0  USEFUL:    1678194  USELESS:   10032044
L2C USEFUL LOAD PREFETCHES:    1678194 PREFETCH ISSUED TO LOWER LEVEL:   11916663  ACCURACY: 14.0828
L2C TIMELY PREFETCHES:    1678194 LATE PREFETCHES: 239369 DROPPED PREFETCHES: 0
L2C PREFETCHES SAME FILL-ORIGIN LEVEL: 8625159 DIFFERENT FILL-ORIGIN LEVEL: 0
L2C AVERAGE MISS LATENCY: 164.515 cycles
L2C RQ	ACCESS:    3726618	FORWARD:          0	MERGED:          0	TO_CACHE:    3726548
L2C WQ	ACCESS:     963711	FORWARD:         72	MERGED:          0	TO_CACHE:     963711
L2C PQ	ACCESS:   29520115	FORWARD:          0	MERGED:     179850	TO_CACHE:   29340263

L2C Instructions Evicting Data 6
L2C Translations Evicting Data 38864
L2C Data Evicting Data 12949473
L2C Instructions Evicting Instructions 0
L2C Translations Evicting Instructions 0
L2C Data Evicting Instructions 6
L2C Instructions Evicting Translations 0
L2C Translations Evicting Translations 51
L2C Data Evicting Translations 38718
L2C Dense regions hint from L2: 0
PSCL5 TOTAL     ACCESS:     600766  HIT:     600766  MISS:          0  HIT %:        100  MISS %:          0   MPKI: 0
PSCL5 LOAD TRANSLATION ACCESS:      54017  HIT:      54017  MISS:          0  HIT %:        100  MISS %:          0   MPKI: 0
PSCL5 TRANSLATION FROM L1D PREFETCHER ACCESS:     546749  HIT:     546749  MISS:          0  HIT %:        100  MISS %:          0   MPKI: 0
PSCL5 PREFETCH  REQUESTED:          0  ISSUED:          0  USEFUL:          0  USELESS:          0
PSCL5 USEFUL LOAD PREFETCHES:          0 PREFETCH ISSUED TO LOWER LEVEL:          0  ACCURACY: -nan
PSCL5 TIMELY PREFETCHES:          0 LATE PREFETCHES: 0 DROPPED PREFETCHES: 0
PSCL5 PREFETCHES SAME FILL-ORIGIN LEVEL: 0 DIFFERENT FILL-ORIGIN LEVEL: 0

PSCL4 TOTAL     ACCESS:     600766  HIT:     600766  MISS:          0  HIT %:        100  MISS %:          0   MPKI: 0
PSCL4 LOAD TRANSLATION ACCESS:      54017  HIT:      54017  MISS:          0  HIT %:        100  MISS %:          0   MPKI: 0
PSCL4 TRANSLATION FROM L1D PREFETCHER ACCESS:     546749  HIT:     546749  MISS:          0  HIT %:        100  MISS %:          0   MPKI: 0
PSCL4 PREFETCH  REQUESTED:          0  ISSUED:          0  USEFUL:          0  USELESS:          0
PSCL4 USEFUL LOAD PREFETCHES:          0 PREFETCH ISSUED TO LOWER LEVEL:          0  ACCURACY: -nan
PSCL4 TIMELY PREFETCHES:          0 LATE PREFETCHES: 0 DROPPED PREFETCHES: 0
PSCL4 PREFETCHES SAME FILL-ORIGIN LEVEL: 0 DIFFERENT FILL-ORIGIN LEVEL: 0

PSCL3 TOTAL     ACCESS:     600191  HIT:     600185  MISS:          6  HIT %:     99.999  MISS %: 0.000999682   MPKI: 3e-05
PSCL3 LOAD TRANSLATION ACCESS:      53475  HIT:      53469  MISS:          6  HIT %:    99.9888  MISS %:  0.0112202   MPKI: 3e-05
PSCL3 TRANSLATION FROM L1D PREFETCHER ACCESS:     546716  HIT:     546716  MISS:          0  HIT %:        100  MISS %:          0   MPKI: 0
PSCL3 PREFETCH  REQUESTED:          0  ISSUED:          0  USEFUL:          0  USELESS:          0
PSCL3 USEFUL LOAD PREFETCHES:          0 PREFETCH ISSUED TO LOWER LEVEL:          0  ACCURACY: -nan
PSCL3 TIMELY PREFETCHES:          0 LATE PREFETCHES: 0 DROPPED PREFETCHES: 0
PSCL3 PREFETCHES SAME FILL-ORIGIN LEVEL: 0 DIFFERENT FILL-ORIGIN LEVEL: 0

PSCL2 TOTAL     ACCESS:     587670  HIT:     587202  MISS:        468  HIT %:    99.9204  MISS %:  0.0796365   MPKI: 0.00234
PSCL2 LOAD TRANSLATION ACCESS:      54101  HIT:      53633  MISS:        468  HIT %:     99.135  MISS %:   0.865049   MPKI: 0.00234
PSCL2 TRANSLATION FROM L1D PREFETCHER ACCESS:     533569  HIT:     533569  MISS:          0  HIT %:        100  MISS %:          0   MPKI: 0
PSCL2 PREFETCH  REQUESTED:          0  ISSUED:          0  USEFUL:          0  USELESS:          0
PSCL2 USEFUL LOAD PREFETCHES:          0 PREFETCH ISSUED TO LOWER LEVEL:          0  ACCURACY: -nan
PSCL2 TIMELY PREFETCHES:          0 LATE PREFETCHES: 0 DROPPED PREFETCHES: 0
PSCL2 PREFETCHES SAME FILL-ORIGIN LEVEL: 0 DIFFERENT FILL-ORIGIN LEVEL: 0

LLC TOTAL     ACCESS:   13877171  HIT:    2989653  MISS:   10887518  HIT %:    21.5437  MISS %:    78.4563   MPKI: 54.4376
LLC LOAD      ACCESS:     663410  HIT:      41807  MISS:     621603  HIT %:    6.30183  MISS %:    93.6982   MPKI: 3.10801
LLC RFO       ACCESS:     408132  HIT:        491  MISS:     407641  HIT %:   0.120304  MISS %:    99.8797   MPKI: 2.03821
LLC PREFETCH  ACCESS:   11916661  HIT:    2891910  MISS:    9024751  HIT %:    24.2678  MISS %:    75.7322   MPKI: 45.1238
LLC WRITEBACK ACCESS:     850053  HIT:      46105  MISS:     803948  HIT %:    5.42378  MISS %:    94.5762   MPKI: 4.01974
LLC LOAD TRANSLATION ACCESS:       7641  HIT:        493  MISS:       7148  HIT %:    6.45204  MISS %:     93.548   MPKI: 0.03574
LLC TRANSLATION FROM L1D PREFETCHER ACCESS:      31274  HIT:       8847  MISS:      22427  HIT %:    28.2887  MISS %:    71.7113   MPKI: 0.112135
LLC PREFETCH  REQUESTED:          0  ISSUED:          0  USEFUL:       6792  USELESS:    9034873
LLC USEFUL LOAD PREFETCHES:       6792 PREFETCH ISSUED TO LOWER LEVEL:    9024754  ACCURACY: 0.0752597
LLC TIMELY PREFETCHES:       6792 LATE PREFETCHES: 0 DROPPED PREFETCHES: 0
LLC PREFETCHES SAME FILL-ORIGIN LEVEL: 0 DIFFERENT FILL-ORIGIN LEVEL: 0
LLC AVERAGE MISS LATENCY: 164.214 cycles
LLC RQ	ACCESS:    1110457	FORWARD:          0	MERGED:          0	TO_CACHE:    1110457
LLC WQ	ACCESS:     850053	FORWARD:          0	MERGED:          0	TO_CACHE:     850053
LLC PQ	ACCESS:   11916663	FORWARD:          0	MERGED:          0	TO_CACHE:   11916663

LLC Dense regions hint to LLC: 0

RAW hits: 2302046
Loads Generated: 69218450
Loads sent to L1D: 66916403
Stores Generated: 46248415
Stores sent to L1D: 46248418
Major fault: 0 Minor fault: 63874
Allocated PAGES: 63874

DRAM Statistics
 CHANNEL 0
 RQ ROW_BUFFER_HIT:    7455267  ROW_BUFFER_MISS:    2628295
 DBUS_CONGESTED:       1965
 WQ ROW_BUFFER_HIT:     124083  ROW_BUFFER_MISS:     720685  FULL:          0

 AVG_CONGESTED_CYCLE: 4
 All warmup complete: 2
Channel 0 Bank busy for read cycles: 0
Channel 0 Bank busy for write cycles: 0
Channel 0
Rank 0
0banks busy for read cycles: 128065258
0banks busy for write cycles: 138130
1banks busy for read cycles: 69770662
1banks busy for write cycles: 19629257
2banks busy for read cycles: 30130699
2banks busy for write cycles: 9820015
3banks busy for read cycles: 19836301
3banks busy for write cycles: 5558739
4banks busy for read cycles: 17275383
4banks busy for write cycles: 3391674
5banks busy for read cycles: 16274987
5banks busy for write cycles: 2186346
6banks busy for read cycles: 17662044
6banks busy for write cycles: 1651161
7banks busy for read cycles: 21019382
7banks busy for write cycles: 2084072
8banks busy for read cycles: 22231541
8banks busy for write cycles: 7269755

CPU 0 Branch Prediction Accuracy: 98.9% MPKI: 1.30099 Average ROB Occupancy at Mispredict: 169.484
Branch types
NOT_BRANCH: 174224419 87.1122%
BRANCH_DIRECT_JUMP: 2120381 1.06019%
BRANCH_INDIRECT: 0 0%
BRANCH_CONDITIONAL: 23654440 11.8272%
BRANCH_DIRECT_CALL: 241 0.0001205%
BRANCH_INDIRECT_CALL: 0 0%
BRANCH_RETURN: 240 0.00012%
BRANCH_OTHER: 0 0%

DRAM PAGES: 1048576
Allocated PAGES: 63874
