
*** ChampSim Multicore Out-of-Order Simulator ***

Warmup Instructions: 50000000
Simulation Instructions: 200000000
Number of CPUs: 1
LLC sets: 2048
LLC ways: 16
Off-chip DRAM Size: 4096 MB Channels: 1 Width: 64-bit Data Rate: 6400 MT/s
argv[0]: ./ChampSim/Berti/bin/multiperspective_perceptron8kb-no-vberti-no-no-no-no-no-lru-lru-lru-srrip-drrip-lru-lru-lru-1core-no
argv[1]: -warmup_instructions
argv[2]: 50000000
argv[3]: -simulation_instructions
argv[4]: 200000000
argv[5]: -traces
argv[6]: traces/spec2k17_ten/605.mcf_s-665B.champsimtrace.xz
CPU 0 runs traces/spec2k17_ten/605.mcf_s-665B.champsimtrace.xz
.xz
CPU 0 Multiperspective perceptron branch predictor
BTB has LRU replacement policy
ITLB has LRU replacement policy
DTLB has LRU replacement policy
STLB has LRU replacement policy
L1I has LRU replacement policy
History Sets: 8
History Ways: 16
BERTI Size: 16
BERTI Stride Size: 16
L1D has LRU replacement policy
Initialize SRRIP state for L2C
Initialize DRRIP state for LLC
Heartbeat CPU 0 instructions: 10000000 cycles: 3308975 heartbeat IPC: 3.02208 cumulative IPC: 3.02208 (Simulation time: 0 hr 11 min 13 sec) 
Heartbeat CPU 0 instructions: 20000000 cycles: 6618023 heartbeat IPC: 3.02202 cumulative IPC: 3.02205 (Simulation time: 0 hr 18 min 3 sec) 
Heartbeat CPU 0 instructions: 30000002 cycles: 9921100 heartbeat IPC: 3.02748 cumulative IPC: 3.02386 (Simulation time: 0 hr 24 min 4 sec) 
Heartbeat CPU 0 instructions: 40000003 cycles: 13225399 heartbeat IPC: 3.02636 cumulative IPC: 3.02448 (Simulation time: 0 hr 31 min 14 sec) 
Heartbeat CPU 0 instructions: 50000002 cycles: 16525471 heartbeat IPC: 3.03024 cumulative IPC: 3.02563 (Simulation time: 0 hr 37 min 20 sec) 

Warmup complete CPU 0 instructions: 50000002 cycles: 16525471 (Simulation time: 0 hr 37 min 20 sec) 

Heartbeat CPU 0 instructions: 60000003 cycles: 50564461 heartbeat IPC: 0.293781 cumulative IPC: 0.293781 (Simulation time: 0 hr 45 min 6 sec) 
Heartbeat CPU 0 instructions: 70000003 cycles: 84486476 heartbeat IPC: 0.294794 cumulative IPC: 0.294286 (Simulation time: 0 hr 56 min 55 sec) 
Heartbeat CPU 0 instructions: 80000000 cycles: 118414517 heartbeat IPC: 0.294741 cumulative IPC: 0.294438 (Simulation time: 1 hr 8 min 32 sec) 
Heartbeat CPU 0 instructions: 90000002 cycles: 153262878 heartbeat IPC: 0.286958 cumulative IPC: 0.292532 (Simulation time: 1 hr 17 min 37 sec) 
Heartbeat CPU 0 instructions: 100000000 cycles: 187267189 heartbeat IPC: 0.29408 cumulative IPC: 0.29284 (Simulation time: 1 hr 26 min 6 sec) 
Heartbeat CPU 0 instructions: 110000000 cycles: 221260171 heartbeat IPC: 0.294178 cumulative IPC: 0.293062 (Simulation time: 1 hr 35 min 51 sec) 
Heartbeat CPU 0 instructions: 120000000 cycles: 255099385 heartbeat IPC: 0.295515 cumulative IPC: 0.29341 (Simulation time: 1 hr 42 min 27 sec) 
Heartbeat CPU 0 instructions: 130000000 cycles: 288929881 heartbeat IPC: 0.295591 cumulative IPC: 0.293681 (Simulation time: 1 hr 49 min 38 sec) 
Heartbeat CPU 0 instructions: 140000002 cycles: 323407164 heartbeat IPC: 0.290046 cumulative IPC: 0.293273 (Simulation time: 1 hr 57 min 48 sec) 
Heartbeat CPU 0 instructions: 150000000 cycles: 357750913 heartbeat IPC: 0.291174 cumulative IPC: 0.293061 (Simulation time: 2 hr 4 min 45 sec) 
Heartbeat CPU 0 instructions: 160000001 cycles: 391866964 heartbeat IPC: 0.293117 cumulative IPC: 0.293066 (Simulation time: 2 hr 10 min 39 sec) 
Heartbeat CPU 0 instructions: 170000003 cycles: 426429746 heartbeat IPC: 0.289329 cumulative IPC: 0.292751 (Simulation time: 2 hr 18 min 1 sec) 
Heartbeat CPU 0 instructions: 180000001 cycles: 460528937 heartbeat IPC: 0.293262 cumulative IPC: 0.292791 (Simulation time: 2 hr 29 min 39 sec) 
Heartbeat CPU 0 instructions: 190000002 cycles: 494570935 heartbeat IPC: 0.293755 cumulative IPC: 0.292859 (Simulation time: 2 hr 39 min 10 sec) 
Heartbeat CPU 0 instructions: 200000000 cycles: 528778359 heartbeat IPC: 0.292334 cumulative IPC: 0.292824 (Simulation time: 2 hr 48 min 59 sec) 
Heartbeat CPU 0 instructions: 210000000 cycles: 562913092 heartbeat IPC: 0.292957 cumulative IPC: 0.292832 (Simulation time: 2 hr 57 min 7 sec) 
Heartbeat CPU 0 instructions: 220000000 cycles: 596738529 heartbeat IPC: 0.295635 cumulative IPC: 0.292996 (Simulation time: 3 hr 7 min 17 sec) 
Heartbeat CPU 0 instructions: 230000000 cycles: 631651007 heartbeat IPC: 0.286431 cumulative IPC: 0.292623 (Simulation time: 3 hr 13 min 34 sec) 
Heartbeat CPU 0 instructions: 240000000 cycles: 665552198 heartbeat IPC: 0.294975 cumulative IPC: 0.292746 (Simulation time: 3 hr 19 min 17 sec) 
Heartbeat CPU 0 instructions: 250000002 cycles: 699609920 heartbeat IPC: 0.293619 cumulative IPC: 0.29279 (Simulation time: 3 hr 23 min 57 sec) 
Finished CPU 0 instructions: 200000000 cycles: 683084449 cumulative IPC: 0.29279 (Simulation time: 3 hr 23 min 57 sec) 

ChampSim completed all CPUs

Region of Interest Statistics

CPU 0 cumulative IPC: 0.29279 instructions: 200000000 cycles: 683084449
ITLB TOTAL     ACCESS:   36154493  HIT:   36154493  MISS:          0  HIT %:        100  MISS %:          0   MPKI: 0
ITLB LOAD TRANSLATION ACCESS:   36154493  HIT:   36154493  MISS:          0  HIT %:        100  MISS %:          0   MPKI: 0
ITLB PREFETCH  REQUESTED:          0  ISSUED:          0  USEFUL:          0  USELESS:          0
ITLB USEFUL LOAD PREFETCHES:          0 PREFETCH ISSUED TO LOWER LEVEL:          0  ACCURACY: -nan
ITLB TIMELY PREFETCHES:          0 LATE PREFETCHES: 0 DROPPED PREFETCHES: 0
ITLB PREFETCHES SAME FILL-ORIGIN LEVEL: 0 DIFFERENT FILL-ORIGIN LEVEL: 0
ITLB AVERAGE MISS LATENCY: -nan cycles
ITLB RQ	ACCESS:   39334674	FORWARD:          0	MERGED:    3180182	TO_CACHE:   36154492

DTLB TOTAL     ACCESS:   62252786  HIT:   59257258  MISS:    2995528  HIT %:    95.1881  MISS %:    4.81188   MPKI: 14.9776
DTLB LOAD TRANSLATION ACCESS:   62252786  HIT:   59257258  MISS:    2995528  HIT %:    95.1881  MISS %:    4.81188   MPKI: 14.9776
DTLB PREFETCH  REQUESTED:          0  ISSUED:          0  USEFUL:          0  USELESS:          0
DTLB USEFUL LOAD PREFETCHES:          0 PREFETCH ISSUED TO LOWER LEVEL:          0  ACCURACY: -nan
DTLB TIMELY PREFETCHES:          0 LATE PREFETCHES: 0 DROPPED PREFETCHES: 0
DTLB PREFETCHES SAME FILL-ORIGIN LEVEL: 0 DIFFERENT FILL-ORIGIN LEVEL: 0
DTLB AVERAGE MISS LATENCY: 10.5135 cycles
DTLB RQ	ACCESS:   76134138	FORWARD:          0	MERGED:   13513464	TO_CACHE:   62620674

STLB TOTAL     ACCESS:    9587294  HIT:    9545209  MISS:      42085  HIT %:     99.561  MISS %:   0.438966   MPKI: 0.210425
STLB LOAD TRANSLATION ACCESS:    2995528  HIT:    2953594  MISS:      41934  HIT %:    98.6001  MISS %:    1.39989   MPKI: 0.20967
STLB TRANSLATION FROM L1D PREFETCHER ACCESS:    6591766  HIT:    6591615  MISS:        151  HIT %:    99.9977  MISS %: 0.00229074   MPKI: 0.000755
STLB PREFETCH  REQUESTED:          0  ISSUED:          0  USEFUL:        105  USELESS:         45
STLB USEFUL LOAD PREFETCHES:        105 PREFETCH ISSUED TO LOWER LEVEL:          0  ACCURACY: inf
STLB TIMELY PREFETCHES:        105 LATE PREFETCHES: 6241 DROPPED PREFETCHES: 698087
STLB PREFETCHES SAME FILL-ORIGIN LEVEL: 0 DIFFERENT FILL-ORIGIN LEVEL: 0
STLB AVERAGE MISS LATENCY: 90.4328 cycles
STLB RQ	ACCESS:   32385303	FORWARD:          0	MERGED:   22058153	TO_CACHE:   10327150

STLB Hit, L1D data hit: 0
STLB Hit, L2C data hit: 0
STLB Hit, LLC data hit: 0
STLB Hit, LLC data miss: 0
STLB STLB hints to L2: 0
L1D TOTAL     ACCESS:   97790920  HIT:   90806324  MISS:    6984596  HIT %:    92.8576  MISS %:    7.14238   MPKI: 34.923
L1D LOAD      ACCESS:   52501886  HIT:   47652459  MISS:    4849427  HIT %:    90.7633  MISS %:    9.23667   MPKI: 24.2471
L1D RFO       ACCESS:   22349702  HIT:   21595268  MISS:     754434  HIT %:    96.6244  MISS %:    3.37559   MPKI: 3.77217
L1D PREFETCH  ACCESS:   22939332  HIT:   21558597  MISS:    1380735  HIT %:    93.9809  MISS %:    6.01907   MPKI: 6.90367
L1D PREFETCH  REQUESTED:   63673669  ISSUED:   60990201  USEFUL:    1372343  USELESS:       8392
L1D USEFUL LOAD PREFETCHES:    1372343 PREFETCH ISSUED TO LOWER LEVEL:    4801041  ACCURACY: 28.5843
L1D TIMELY PREFETCHES:    1372343 LATE PREFETCHES: 21417 DROPPED PREFETCHES: 2191322
L1D PREFETCHES SAME FILL-ORIGIN LEVEL: 1402152 DIFFERENT FILL-ORIGIN LEVEL: 3398889
L1D AVERAGE MISS LATENCY: 64.9059 cycles
L1D RQ	ACCESS:   67193505	FORWARD:          0	MERGED:   12420575	TO_CACHE:   52542482
L1D WQ	ACCESS:   23674381	FORWARD:    2243903	MERGED:      82725	TO_CACHE:   23591656
L1D PQ	ACCESS:   31600426	FORWARD:          0	MERGED:    2197196	TO_CACHE:   29389775

L1D UNIQUE REGIONS ACCESSED: 0
L1D REGIONS CONFLICTS: 0
L1D Cross Page Prefetch Requests: 5081923
L1D Same Page Prefetch Requests: 35624605
L1D ROI Sum of L1D PQ occupancy: 508784507
L1D PREFETCHES PUSHED FROM L2C: 0
L1I TOTAL     ACCESS:   39334675  HIT:   39334673  MISS:          2  HIT %:        100  MISS %: 5.08457e-06   MPKI: 1e-05
L1I LOAD      ACCESS:   39334675  HIT:   39334673  MISS:          2  HIT %:        100  MISS %: 5.08457e-06   MPKI: 1e-05
L1I PREFETCH  REQUESTED:          0  ISSUED:          0  USEFUL:          0  USELESS:          0
L1I USEFUL LOAD PREFETCHES:          0 PREFETCH ISSUED TO LOWER LEVEL:          0  ACCURACY: -nan
L1I TIMELY PREFETCHES:          0 LATE PREFETCHES: 0 DROPPED PREFETCHES: 0
L1I PREFETCHES SAME FILL-ORIGIN LEVEL: 0 DIFFERENT FILL-ORIGIN LEVEL: 0
L1I AVERAGE MISS LATENCY: 214 cycles
L1I RQ	ACCESS:   62561313	FORWARD:          0	MERGED:   23226639	TO_CACHE:   39334674

BTB TOTAL     ACCESS:   47317451  HIT:   44887025  MISS:    2430426  HIT %:    94.8636  MISS %:    5.13643   MPKI: 12.1521
BTB BRANCH_DIRECT_JUMP	ACCESS:    5163667  HIT:    5163630  MISS:         37
BTB BRANCH_INDIRECT	ACCESS:          0  HIT:          0  MISS:          0
BTB BRANCH_CONDITIONAL	ACCESS:   31033862  HIT:   31033783  MISS:         79
BTB BRANCH_DIRECT_CALL	ACCESS:    5259752  HIT:    5259734  MISS:         18
BTB BRANCH_INDIRECT_CALL	ACCESS:     300210  HIT:     300202  MISS:          8
BTB BRANCH_RETURN	ACCESS:    5559960  HIT:    3129676  MISS:    2430284
BTB BRANCH_OTHER ACCESS:          0  HIT:          0  MISS:          0

L2C TOTAL     ACCESS:   12025310  HIT:    7985719  MISS:    4039591  HIT %:    66.4076  MISS %:    33.5924   MPKI: 20.198
L2C LOAD      ACCESS:    4827990  HIT:    2408415  MISS:    2419575  HIT %:    49.8844  MISS %:    50.1156   MPKI: 12.0979
L2C DATA LOAD MPKI: 12.0979
L2C INSTRUCTION LOAD MPKI: 1e-05
L2C RFO       ACCESS:     754428  HIT:     678536  MISS:      75892  HIT %:    89.9405  MISS %:    10.0595   MPKI: 0.37946
L2C PREFETCH  ACCESS:    4658408  HIT:    3132663  MISS:    1525745  HIT %:    67.2475  MISS %:    32.7525   MPKI: 7.62873
L2C DATA PREFETCH MPKI: 7.62873
L2C INSTRUCTION PREFETCH MPKI: 0
L2C WRITEBACK ACCESS:    1036891  HIT:    1035467  MISS:       1424  HIT %:    99.8627  MISS %:   0.137334   MPKI: 0.00712
L2C LOAD TRANSLATION ACCESS:      42224  HIT:      28372  MISS:      13852  HIT %:     67.194  MISS %:     32.806   MPKI: 0.06926
L2C TRANSLATION FROM L1D PREFETCHER ACCESS:     705369  HIT:     702266  MISS:       3103  HIT %:    99.5601  MISS %:   0.439912   MPKI: 0.015515
L2C PREFETCH  REQUESTED:          0  ISSUED:          0  USEFUL:     312420  USELESS:    1216632
L2C USEFUL LOAD PREFETCHES:     312420 PREFETCH ISSUED TO LOWER LEVEL:    1533866  ACCURACY: 20.3681
L2C TIMELY PREFETCHES:     312420 LATE PREFETCHES: 8121 DROPPED PREFETCHES: 0
L2C PREFETCHES SAME FILL-ORIGIN LEVEL: 435642 DIFFERENT FILL-ORIGIN LEVEL: 0
L2C AVERAGE MISS LATENCY: 96.8563 cycles
L2C RQ	ACCESS:    6330039	FORWARD:          0	MERGED:          0	TO_CACHE:    6330011
L2C WQ	ACCESS:    1036891	FORWARD:         29	MERGED:          0	TO_CACHE:    1036891
L2C PQ	ACCESS:    4801041	FORWARD:          0	MERGED:        330	TO_CACHE:    4800710

L2C Instructions Evicting Data 2
L2C Translations Evicting Data 16882
L2C Data Evicting Data 4004325
L2C Instructions Evicting Instructions 0
L2C Translations Evicting Instructions 0
L2C Data Evicting Instructions 2
L2C Instructions Evicting Translations 0
L2C Translations Evicting Translations 73
L2C Data Evicting Translations 16883
L2C Dense regions hint from L2: 0
PSCL5 TOTAL     ACCESS:     746412  HIT:     746412  MISS:          0  HIT %:        100  MISS %:          0   MPKI: 0
PSCL5 LOAD TRANSLATION ACCESS:      41933  HIT:      41933  MISS:          0  HIT %:        100  MISS %:          0   MPKI: 0
PSCL5 TRANSLATION FROM L1D PREFETCHER ACCESS:     704479  HIT:     704479  MISS:          0  HIT %:        100  MISS %:          0   MPKI: 0
PSCL5 PREFETCH  REQUESTED:          0  ISSUED:          0  USEFUL:          0  USELESS:          0
PSCL5 USEFUL LOAD PREFETCHES:          0 PREFETCH ISSUED TO LOWER LEVEL:          0  ACCURACY: -nan
PSCL5 TIMELY PREFETCHES:          0 LATE PREFETCHES: 0 DROPPED PREFETCHES: 0
PSCL5 PREFETCHES SAME FILL-ORIGIN LEVEL: 0 DIFFERENT FILL-ORIGIN LEVEL: 0

PSCL4 TOTAL     ACCESS:     746412  HIT:     746412  MISS:          0  HIT %:        100  MISS %:          0   MPKI: 0
PSCL4 LOAD TRANSLATION ACCESS:      41933  HIT:      41933  MISS:          0  HIT %:        100  MISS %:          0   MPKI: 0
PSCL4 TRANSLATION FROM L1D PREFETCHER ACCESS:     704479  HIT:     704479  MISS:          0  HIT %:        100  MISS %:          0   MPKI: 0
PSCL4 PREFETCH  REQUESTED:          0  ISSUED:          0  USEFUL:          0  USELESS:          0
PSCL4 USEFUL LOAD PREFETCHES:          0 PREFETCH ISSUED TO LOWER LEVEL:          0  ACCURACY: -nan
PSCL4 TIMELY PREFETCHES:          0 LATE PREFETCHES: 0 DROPPED PREFETCHES: 0
PSCL4 PREFETCHES SAME FILL-ORIGIN LEVEL: 0 DIFFERENT FILL-ORIGIN LEVEL: 0

PSCL3 TOTAL     ACCESS:     746412  HIT:     746412  MISS:          0  HIT %:        100  MISS %:          0   MPKI: 0
PSCL3 LOAD TRANSLATION ACCESS:      41933  HIT:      41933  MISS:          0  HIT %:        100  MISS %:          0   MPKI: 0
PSCL3 TRANSLATION FROM L1D PREFETCHER ACCESS:     704479  HIT:     704479  MISS:          0  HIT %:        100  MISS %:          0   MPKI: 0
PSCL3 PREFETCH  REQUESTED:          0  ISSUED:          0  USEFUL:          0  USELESS:          0
PSCL3 USEFUL LOAD PREFETCHES:          0 PREFETCH ISSUED TO LOWER LEVEL:          0  ACCURACY: -nan
PSCL3 TIMELY PREFETCHES:          0 LATE PREFETCHES: 0 DROPPED PREFETCHES: 0
PSCL3 PREFETCHES SAME FILL-ORIGIN LEVEL: 0 DIFFERENT FILL-ORIGIN LEVEL: 0

PSCL2 TOTAL     ACCESS:     743844  HIT:     743350  MISS:        494  HIT %:    99.9336  MISS %:  0.0664118   MPKI: 0.00247
PSCL2 LOAD TRANSLATION ACCESS:      41934  HIT:      41440  MISS:        494  HIT %:     98.822  MISS %:    1.17804   MPKI: 0.00247
PSCL2 TRANSLATION FROM L1D PREFETCHER ACCESS:     701910  HIT:     701910  MISS:          0  HIT %:        100  MISS %:          0   MPKI: 0
PSCL2 PREFETCH  REQUESTED:          0  ISSUED:          0  USEFUL:          0  USELESS:          0
PSCL2 USEFUL LOAD PREFETCHES:          0 PREFETCH ISSUED TO LOWER LEVEL:          0  ACCURACY: -nan
PSCL2 TIMELY PREFETCHES:          0 LATE PREFETCHES: 0 DROPPED PREFETCHES: 0
PSCL2 PREFETCHES SAME FILL-ORIGIN LEVEL: 0 DIFFERENT FILL-ORIGIN LEVEL: 0

LLC TOTAL     ACCESS:    4201353  HIT:    2222211  MISS:    1979142  HIT %:    52.8927  MISS %:    47.1073   MPKI: 9.89571
LLC LOAD      ACCESS:    2411453  HIT:    1827269  MISS:     584184  HIT %:    75.7746  MISS %:    24.2254   MPKI: 2.92092
LLC RFO       ACCESS:      75886  HIT:      73424  MISS:       2462  HIT %:    96.7557  MISS %:    3.24434   MPKI: 0.01231
LLC PREFETCH  ACCESS:    1533864  HIT:     165393  MISS:    1368471  HIT %:    10.7828  MISS %:    89.2172   MPKI: 6.84236
LLC WRITEBACK ACCESS:     163195  HIT:     144200  MISS:      18995  HIT %:    88.3606  MISS %:    11.6394   MPKI: 0.094975
LLC LOAD TRANSLATION ACCESS:      13852  HIT:      11749  MISS:       2103  HIT %:    84.8181  MISS %:    15.1819   MPKI: 0.010515
LLC TRANSLATION FROM L1D PREFETCHER ACCESS:       3103  HIT:        176  MISS:       2927  HIT %:    5.67193  MISS %:    94.3281   MPKI: 0.014635
LLC PREFETCH  REQUESTED:          0  ISSUED:          0  USEFUL:     213667  USELESS:    1159594
LLC USEFUL LOAD PREFETCHES:     213667 PREFETCH ISSUED TO LOWER LEVEL:    1368471  ACCURACY: 15.6136
LLC TIMELY PREFETCHES:     213667 LATE PREFETCHES: 0 DROPPED PREFETCHES: 0
LLC PREFETCHES SAME FILL-ORIGIN LEVEL: 0 DIFFERENT FILL-ORIGIN LEVEL: 0
LLC AVERAGE MISS LATENCY: 136.266 cycles
LLC RQ	ACCESS:    2504301	FORWARD:          0	MERGED:          0	TO_CACHE:    2504294
LLC WQ	ACCESS:     163195	FORWARD:          9	MERGED:          0	TO_CACHE:     163195
LLC PQ	ACCESS:    1533866	FORWARD:          0	MERGED:          0	TO_CACHE:    1533864

LLC Dense regions hint to LLC: 0

RAW hits: 3092100
Loads Generated: 70285606
Loads sent to L1D: 67193505
Stores Generated: 23674352
Stores sent to L1D: 23674381
Major fault: 0 Minor fault: 30918
Allocated PAGES: 30918

DRAM Statistics
 CHANNEL 0
 RQ ROW_BUFFER_HIT:    1007639  ROW_BUFFER_MISS:     952504
 DBUS_CONGESTED:        436
 WQ ROW_BUFFER_HIT:       8308  ROW_BUFFER_MISS:      35968  FULL:          0

 AVG_CONGESTED_CYCLE: 4
 All warmup complete: 2
Channel 0 Bank busy for read cycles: 0
Channel 0 Bank busy for write cycles: 0
Channel 0
Rank 0
0banks busy for read cycles: 579287185
0banks busy for write cycles: 36014
1banks busy for read cycles: 50895724
1banks busy for write cycles: 6205265
2banks busy for read cycles: 23364138
2banks busy for write cycles: 821834
3banks busy for read cycles: 10179240
3banks busy for write cycles: 177400
4banks busy for read cycles: 4574668
4banks busy for write cycles: 47680
5banks busy for read cycles: 2553470
5banks busy for write cycles: 16600
6banks busy for read cycles: 1993934
6banks busy for write cycles: 6150
7banks busy for read cycles: 1267727
7banks busy for write cycles: 4269
8banks busy for read cycles: 1650566
8banks busy for write cycles: 2586

CPU 0 Branch Prediction Accuracy: 89.3462% MPKI: 17.6829 Average ROB Occupancy at Mispredict: 19.1846
Branch types
NOT_BRANCH: 150520485 75.2602%
BRANCH_DIRECT_JUMP: 5163667 2.58183%
BRANCH_INDIRECT: 0 0%
BRANCH_CONDITIONAL: 33195560 16.5978%
BRANCH_DIRECT_CALL: 5259752 2.62988%
BRANCH_INDIRECT_CALL: 300210 0.150105%
BRANCH_RETURN: 5559960 2.77998%
BRANCH_OTHER: 0 0%

DRAM PAGES: 1048576
Allocated PAGES: 30918
