
*** ChampSim Multicore Out-of-Order Simulator ***

Warmup Instructions: 50000000
Simulation Instructions: 200000000
Number of CPUs: 1
LLC sets: 2048
LLC ways: 16
Off-chip DRAM Size: 4096 MB Channels: 1 Width: 64-bit Data Rate: 6400 MT/s
argv[0]: ./ChampSim/Berti/bin/multiperspective_perceptron8kb-no-vberti-no-no-no-no-no-lru-lru-lru-srrip-drrip-lru-lru-lru-1core-no
argv[1]: -warmup_instructions
argv[2]: 50000000
argv[3]: -simulation_instructions
argv[4]: 200000000
argv[5]: -traces
argv[6]: traces/spec2k17_ten/605.mcf_s-782B.champsimtrace.xz
CPU 0 runs traces/spec2k17_ten/605.mcf_s-782B.champsimtrace.xz
.xz
CPU 0 Multiperspective perceptron branch predictor
BTB has LRU replacement policy
ITLB has LRU replacement policy
DTLB has LRU replacement policy
STLB has LRU replacement policy
L1I has LRU replacement policy
History Sets: 8
History Ways: 16
BERTI Size: 16
BERTI Stride Size: 16
L1D has LRU replacement policy
Initialize SRRIP state for L2C
Initialize DRRIP state for LLC
Heartbeat CPU 0 instructions: 10000001 cycles: 3758983 heartbeat IPC: 2.66029 cumulative IPC: 2.66029 (Simulation time: 0 hr 5 min 16 sec) 
Heartbeat CPU 0 instructions: 20000000 cycles: 7488324 heartbeat IPC: 2.68144 cumulative IPC: 2.67082 (Simulation time: 0 hr 14 min 16 sec) 
Heartbeat CPU 0 instructions: 30000000 cycles: 11272156 heartbeat IPC: 2.64282 cumulative IPC: 2.66143 (Simulation time: 0 hr 25 min 31 sec) 
Heartbeat CPU 0 instructions: 40000003 cycles: 15027398 heartbeat IPC: 2.66295 cumulative IPC: 2.6618 (Simulation time: 0 hr 32 min 9 sec) 
Heartbeat CPU 0 instructions: 50000000 cycles: 18820524 heartbeat IPC: 2.63635 cumulative IPC: 2.65667 (Simulation time: 0 hr 39 min 36 sec) 

Warmup complete CPU 0 instructions: 50000001 cycles: 18820525 (Simulation time: 0 hr 39 min 36 sec) 

Heartbeat CPU 0 instructions: 60000000 cycles: 60546873 heartbeat IPC: 0.239657 cumulative IPC: 0.239657 (Simulation time: 0 hr 54 min 20 sec) 
Heartbeat CPU 0 instructions: 70000002 cycles: 101374050 heartbeat IPC: 0.244935 cumulative IPC: 0.242267 (Simulation time: 1 hr 10 min 1 sec) 
Heartbeat CPU 0 instructions: 80000002 cycles: 142180149 heartbeat IPC: 0.245061 cumulative IPC: 0.243191 (Simulation time: 1 hr 20 min 42 sec) 
Heartbeat CPU 0 instructions: 90000000 cycles: 185206352 heartbeat IPC: 0.232416 cumulative IPC: 0.240405 (Simulation time: 1 hr 35 min 0 sec) 
Heartbeat CPU 0 instructions: 100000001 cycles: 232125383 heartbeat IPC: 0.213133 cumulative IPC: 0.234406 (Simulation time: 1 hr 42 min 19 sec) 
Heartbeat CPU 0 instructions: 110000000 cycles: 280169045 heartbeat IPC: 0.208144 cumulative IPC: 0.229578 (Simulation time: 1 hr 50 min 33 sec) 
Heartbeat CPU 0 instructions: 120000000 cycles: 325510303 heartbeat IPC: 0.22055 cumulative IPC: 0.228244 (Simulation time: 2 hr 1 min 42 sec) 
Heartbeat CPU 0 instructions: 130000003 cycles: 367583724 heartbeat IPC: 0.23768 cumulative IPC: 0.229382 (Simulation time: 2 hr 10 min 33 sec) 
Heartbeat CPU 0 instructions: 140000001 cycles: 408513179 heartbeat IPC: 0.244323 cumulative IPC: 0.230951 (Simulation time: 2 hr 20 min 10 sec) 
Heartbeat CPU 0 instructions: 150000000 cycles: 450528090 heartbeat IPC: 0.238011 cumulative IPC: 0.231638 (Simulation time: 2 hr 35 min 14 sec) 
Heartbeat CPU 0 instructions: 160000002 cycles: 492238651 heartbeat IPC: 0.239747 cumulative IPC: 0.232353 (Simulation time: 2 hr 44 min 53 sec) 
Heartbeat CPU 0 instructions: 170000001 cycles: 534180819 heartbeat IPC: 0.238424 cumulative IPC: 0.232847 (Simulation time: 2 hr 57 min 31 sec) 
Heartbeat CPU 0 instructions: 180000002 cycles: 575976785 heartbeat IPC: 0.239258 cumulative IPC: 0.233328 (Simulation time: 3 hr 7 min 42 sec) 
Heartbeat CPU 0 instructions: 190000001 cycles: 622189178 heartbeat IPC: 0.216392 cumulative IPC: 0.232031 (Simulation time: 3 hr 14 min 20 sec) 
Heartbeat CPU 0 instructions: 200000002 cycles: 670284416 heartbeat IPC: 0.207921 cumulative IPC: 0.230251 (Simulation time: 3 hr 21 min 17 sec) 
Heartbeat CPU 0 instructions: 210000003 cycles: 715807436 heartbeat IPC: 0.219669 cumulative IPC: 0.22956 (Simulation time: 3 hr 27 min 28 sec) 
Heartbeat CPU 0 instructions: 220000000 cycles: 759531614 heartbeat IPC: 0.228706 cumulative IPC: 0.229509 (Simulation time: 3 hr 33 min 36 sec) 
Heartbeat CPU 0 instructions: 230000000 cycles: 802888667 heartbeat IPC: 0.230643 cumulative IPC: 0.229572 (Simulation time: 3 hr 37 min 56 sec) 
Heartbeat CPU 0 instructions: 240000003 cycles: 846038814 heartbeat IPC: 0.231749 cumulative IPC: 0.229685 (Simulation time: 3 hr 42 min 11 sec) 
Heartbeat CPU 0 instructions: 250000003 cycles: 888198759 heartbeat IPC: 0.237192 cumulative IPC: 0.230049 (Simulation time: 3 hr 45 min 15 sec) 
Finished CPU 0 instructions: 200000002 cycles: 869378234 cumulative IPC: 0.230049 (Simulation time: 3 hr 45 min 15 sec) 

ChampSim completed all CPUs

Region of Interest Statistics

CPU 0 cumulative IPC: 0.230049 instructions: 200000002 cycles: 869378234
ITLB TOTAL     ACCESS:   32694537  HIT:   32694537  MISS:          0  HIT %:        100  MISS %:          0   MPKI: 0
ITLB LOAD TRANSLATION ACCESS:   32694537  HIT:   32694537  MISS:          0  HIT %:        100  MISS %:          0   MPKI: 0
ITLB PREFETCH  REQUESTED:          0  ISSUED:          0  USEFUL:          0  USELESS:          0
ITLB USEFUL LOAD PREFETCHES:          0 PREFETCH ISSUED TO LOWER LEVEL:          0  ACCURACY: -nan
ITLB TIMELY PREFETCHES:          0 LATE PREFETCHES: 0 DROPPED PREFETCHES: 0
ITLB PREFETCHES SAME FILL-ORIGIN LEVEL: 0 DIFFERENT FILL-ORIGIN LEVEL: 0
ITLB AVERAGE MISS LATENCY: -nan cycles
ITLB RQ	ACCESS:   33179310	FORWARD:          0	MERGED:     484774	TO_CACHE:   32694536

DTLB TOTAL     ACCESS:   41526019  HIT:   23903129  MISS:   17622890  HIT %:    57.5618  MISS %:    42.4382   MPKI: 88.1144
DTLB LOAD TRANSLATION ACCESS:   41526019  HIT:   23903129  MISS:   17622890  HIT %:    57.5618  MISS %:    42.4382   MPKI: 88.1144
DTLB PREFETCH  REQUESTED:          0  ISSUED:          0  USEFUL:          0  USELESS:          0
DTLB USEFUL LOAD PREFETCHES:          0 PREFETCH ISSUED TO LOWER LEVEL:          0  ACCURACY: -nan
DTLB TIMELY PREFETCHES:          0 LATE PREFETCHES: 0 DROPPED PREFETCHES: 0
DTLB PREFETCHES SAME FILL-ORIGIN LEVEL: 0 DIFFERENT FILL-ORIGIN LEVEL: 0
DTLB AVERAGE MISS LATENCY: 11.181 cycles
DTLB RQ	ACCESS:   45615117	FORWARD:          0	MERGED:    3829352	TO_CACHE:   41785765

STLB TOTAL     ACCESS:   25893838  HIT:   25655008  MISS:     238830  HIT %:    99.0777  MISS %:   0.922343   MPKI: 1.19415
STLB LOAD TRANSLATION ACCESS:   17622890  HIT:   17385499  MISS:     237391  HIT %:    98.6529  MISS %:    1.34706   MPKI: 1.18695
STLB TRANSLATION FROM L1D PREFETCHER ACCESS:    8270948  HIT:    8269509  MISS:       1439  HIT %:    99.9826  MISS %:  0.0173982   MPKI: 0.007195
STLB PREFETCH  REQUESTED:          0  ISSUED:          0  USEFUL:       1259  USELESS:        180
STLB USEFUL LOAD PREFETCHES:       1259 PREFETCH ISSUED TO LOWER LEVEL:          0  ACCURACY: inf
STLB TIMELY PREFETCHES:       1259 LATE PREFETCHES: 71318 DROPPED PREFETCHES: 4117038
STLB PREFETCHES SAME FILL-ORIGIN LEVEL: 0 DIFFERENT FILL-ORIGIN LEVEL: 0
STLB AVERAGE MISS LATENCY: 122.188 cycles
STLB RQ	ACCESS:   90479535	FORWARD:          0	MERGED:   60018829	TO_CACHE:   30460706

STLB Hit, L1D data hit: 0
STLB Hit, L2C data hit: 0
STLB Hit, LLC data hit: 0
STLB Hit, LLC data miss: 0
STLB STLB hints to L2: 0
L1D TOTAL     ACCESS:   87781117  HIT:   56820050  MISS:   30961067  HIT %:    64.7292  MISS %:    35.2708   MPKI: 154.805
L1D LOAD      ACCESS:   41994551  HIT:   20154892  MISS:   21839659  HIT %:    47.9941  MISS %:    52.0059   MPKI: 109.198
L1D RFO       ACCESS:    3351182  HIT:    3290658  MISS:      60524  HIT %:     98.194  MISS %:    1.80605   MPKI: 0.30262
L1D PREFETCH  ACCESS:   42435384  HIT:   33374500  MISS:    9060884  HIT %:    78.6478  MISS %:    21.3522   MPKI: 45.3044
L1D PREFETCH  REQUESTED:  175966412  ISSUED:  161137051  USEFUL:    9056783  USELESS:       4092
L1D USEFUL LOAD PREFETCHES:    9056783 PREFETCH ISSUED TO LOWER LEVEL:   18399485  ACCURACY: 49.223
L1D TIMELY PREFETCHES:    9056783 LATE PREFETCHES: 603689 DROPPED PREFETCHES: 12879869
L1D PREFETCHES SAME FILL-ORIGIN LEVEL: 9664633 DIFFERENT FILL-ORIGIN LEVEL: 8734852
L1D AVERAGE MISS LATENCY: 76.7383 cycles
L1D RQ	ACCESS:   71290723	FORWARD:          0	MERGED:   28578503	TO_CACHE:   42159819
L1D WQ	ACCESS:    3578449	FORWARD:     552452	MERGED:     123151	TO_CACHE:    3455298
L1D PQ	ACCESS:   88280406	FORWARD:          0	MERGED:   15423710	TO_CACHE:   72856645

L1D UNIQUE REGIONS ACCESSED: 0
L1D REGIONS CONFLICTS: 0
L1D Cross Page Prefetch Requests: 21651363
L1D Same Page Prefetch Requests: 88498345
L1D ROI Sum of L1D PQ occupancy: 1638983216
L1D PREFETCHES PUSHED FROM L2C: 0
L1I TOTAL     ACCESS:   33179308  HIT:   33179308  MISS:          0  HIT %:        100  MISS %:          0   MPKI: 0
L1I LOAD      ACCESS:   33179308  HIT:   33179308  MISS:          0  HIT %:        100  MISS %:          0   MPKI: 0
L1I PREFETCH  REQUESTED:          0  ISSUED:          0  USEFUL:          0  USELESS:          0
L1I USEFUL LOAD PREFETCHES:          0 PREFETCH ISSUED TO LOWER LEVEL:          0  ACCURACY: -nan
L1I TIMELY PREFETCHES:          0 LATE PREFETCHES: 0 DROPPED PREFETCHES: 0
L1I PREFETCHES SAME FILL-ORIGIN LEVEL: 0 DIFFERENT FILL-ORIGIN LEVEL: 0
L1I AVERAGE MISS LATENCY: -nan cycles
L1I RQ	ACCESS:   40602232	FORWARD:          0	MERGED:    7422922	TO_CACHE:   33179310

BTB TOTAL     ACCESS:   60210742  HIT:   60015897  MISS:     194845  HIT %:    99.6764  MISS %:   0.323605   MPKI: 0.974225
BTB BRANCH_DIRECT_JUMP	ACCESS:    7722186  HIT:    7722149  MISS:         37
BTB BRANCH_INDIRECT	ACCESS:          0  HIT:          0  MISS:          0
BTB BRANCH_CONDITIONAL	ACCESS:   51083201  HIT:   51083119  MISS:         82
BTB BRANCH_DIRECT_CALL	ACCESS:     648844  HIT:     648826  MISS:         18
BTB BRANCH_INDIRECT_CALL	ACCESS:      53834  HIT:      53826  MISS:          8
BTB BRANCH_RETURN	ACCESS:     702677  HIT:     507977  MISS:     194700
BTB BRANCH_OTHER ACCESS:          0  HIT:          0  MISS:          0

L2C TOTAL     ACCESS:   41417560  HIT:   15500522  MISS:   25917038  HIT %:     37.425  MISS %:     62.575   MPKI: 129.585
L2C LOAD      ACCESS:   21235955  HIT:    6547810  MISS:   14688145  HIT %:    30.8336  MISS %:    69.1664   MPKI: 73.4407
L2C DATA LOAD MPKI: 73.4407
L2C INSTRUCTION LOAD MPKI: 0
L2C RFO       ACCESS:      60524  HIT:      38939  MISS:      21585  HIT %:    64.3365  MISS %:    35.6635   MPKI: 0.107925
L2C PREFETCH  ACCESS:   15182428  HIT:    4058113  MISS:   11124315  HIT %:     26.729  MISS %:     73.271   MPKI: 55.6216
L2C DATA PREFETCH MPKI: 55.6216
L2C INSTRUCTION PREFETCH MPKI: 0
L2C WRITEBACK ACCESS:     503780  HIT:     498326  MISS:       5454  HIT %:    98.9174  MISS %:    1.08262   MPKI: 0.02727
L2C LOAD TRANSLATION ACCESS:     240368  HIT:     186096  MISS:      54272  HIT %:    77.4213  MISS %:    22.5787   MPKI: 0.27136
L2C TRANSLATION FROM L1D PREFETCHER ACCESS:    4194505  HIT:    4171238  MISS:      23267  HIT %:    99.4453  MISS %:   0.554702   MPKI: 0.116335
L2C PREFETCH  REQUESTED:          0  ISSUED:          0  USEFUL:     876840  USELESS:   10270600
L2C USEFUL LOAD PREFETCHES:     876840 PREFETCH ISSUED TO LOWER LEVEL:   11320873  ACCURACY: 7.74534
L2C TIMELY PREFETCHES:     876840 LATE PREFETCHES: 196558 DROPPED PREFETCHES: 0
L2C PREFETCHES SAME FILL-ORIGIN LEVEL: 4834870 DIFFERENT FILL-ORIGIN LEVEL: 0
L2C AVERAGE MISS LATENCY: 94.9617 cycles
L2C RQ	ACCESS:   25731365	FORWARD:          0	MERGED:          0	TO_CACHE:   25731352
L2C WQ	ACCESS:     503780	FORWARD:         13	MERGED:          0	TO_CACHE:     503780
L2C PQ	ACCESS:   18399258	FORWARD:          0	MERGED:       8089	TO_CACHE:   18391169

L2C Instructions Evicting Data 0
L2C Translations Evicting Data 77403
L2C Data Evicting Data 25756656
L2C Instructions Evicting Instructions 0
L2C Translations Evicting Instructions 0
L2C Data Evicting Instructions 0
L2C Instructions Evicting Translations 0
L2C Translations Evicting Translations 136
L2C Data Evicting Translations 77389
L2C Dense regions hint from L2: 0
PSCL5 TOTAL     ACCESS:    4427074  HIT:    4427074  MISS:          0  HIT %:        100  MISS %:          0   MPKI: 0
PSCL5 LOAD TRANSLATION ACCESS:     237279  HIT:     237279  MISS:          0  HIT %:        100  MISS %:          0   MPKI: 0
PSCL5 TRANSLATION FROM L1D PREFETCHER ACCESS:    4189795  HIT:    4189795  MISS:          0  HIT %:        100  MISS %:          0   MPKI: 0
PSCL5 PREFETCH  REQUESTED:          0  ISSUED:          0  USEFUL:          0  USELESS:          0
PSCL5 USEFUL LOAD PREFETCHES:          0 PREFETCH ISSUED TO LOWER LEVEL:          0  ACCURACY: -nan
PSCL5 TIMELY PREFETCHES:          0 LATE PREFETCHES: 0 DROPPED PREFETCHES: 0
PSCL5 PREFETCHES SAME FILL-ORIGIN LEVEL: 0 DIFFERENT FILL-ORIGIN LEVEL: 0

PSCL4 TOTAL     ACCESS:    4427074  HIT:    4427074  MISS:          0  HIT %:        100  MISS %:          0   MPKI: 0
PSCL4 LOAD TRANSLATION ACCESS:     237279  HIT:     237279  MISS:          0  HIT %:        100  MISS %:          0   MPKI: 0
PSCL4 TRANSLATION FROM L1D PREFETCHER ACCESS:    4189795  HIT:    4189795  MISS:          0  HIT %:        100  MISS %:          0   MPKI: 0
PSCL4 PREFETCH  REQUESTED:          0  ISSUED:          0  USEFUL:          0  USELESS:          0
PSCL4 USEFUL LOAD PREFETCHES:          0 PREFETCH ISSUED TO LOWER LEVEL:          0  ACCURACY: -nan
PSCL4 TIMELY PREFETCHES:          0 LATE PREFETCHES: 0 DROPPED PREFETCHES: 0
PSCL4 PREFETCHES SAME FILL-ORIGIN LEVEL: 0 DIFFERENT FILL-ORIGIN LEVEL: 0

PSCL3 TOTAL     ACCESS:    4427074  HIT:    4427074  MISS:          0  HIT %:        100  MISS %:          0   MPKI: 0
PSCL3 LOAD TRANSLATION ACCESS:     237279  HIT:     237279  MISS:          0  HIT %:        100  MISS %:          0   MPKI: 0
PSCL3 TRANSLATION FROM L1D PREFETCHER ACCESS:    4189795  HIT:    4189795  MISS:          0  HIT %:        100  MISS %:          0   MPKI: 0
PSCL3 PREFETCH  REQUESTED:          0  ISSUED:          0  USEFUL:          0  USELESS:          0
PSCL3 USEFUL LOAD PREFETCHES:          0 PREFETCH ISSUED TO LOWER LEVEL:          0  ACCURACY: -nan
PSCL3 TIMELY PREFETCHES:          0 LATE PREFETCHES: 0 DROPPED PREFETCHES: 0
PSCL3 PREFETCHES SAME FILL-ORIGIN LEVEL: 0 DIFFERENT FILL-ORIGIN LEVEL: 0

PSCL2 TOTAL     ACCESS:    4417603  HIT:    4414057  MISS:       3546  HIT %:    99.9197  MISS %:  0.0802698   MPKI: 0.01773
PSCL2 LOAD TRANSLATION ACCESS:     237293  HIT:     233747  MISS:       3546  HIT %:    98.5056  MISS %:    1.49436   MPKI: 0.01773
PSCL2 TRANSLATION FROM L1D PREFETCHER ACCESS:    4180310  HIT:    4180310  MISS:          0  HIT %:        100  MISS %:          0   MPKI: 0
PSCL2 PREFETCH  REQUESTED:          0  ISSUED:          0  USEFUL:          0  USELESS:          0
PSCL2 USEFUL LOAD PREFETCHES:          0 PREFETCH ISSUED TO LOWER LEVEL:          0  ACCURACY: -nan
PSCL2 TIMELY PREFETCHES:          0 LATE PREFETCHES: 0 DROPPED PREFETCHES: 0
PSCL2 PREFETCHES SAME FILL-ORIGIN LEVEL: 0 DIFFERENT FILL-ORIGIN LEVEL: 0

LLC TOTAL     ACCESS:   26188618  HIT:   12478277  MISS:   13710341  HIT %:    47.6477  MISS %:    52.3523   MPKI: 68.5517
LLC LOAD      ACCESS:   14491576  HIT:   11596909  MISS:    2894667  HIT %:    80.0252  MISS %:    19.9748   MPKI: 14.4733
LLC RFO       ACCESS:      21585  HIT:      17567  MISS:       4018  HIT %:    81.3852  MISS %:    18.6148   MPKI: 0.02009
LLC PREFETCH  ACCESS:   11320873  HIT:     628226  MISS:   10692647  HIT %:    5.54927  MISS %:    94.4507   MPKI: 53.4632
LLC WRITEBACK ACCESS:     277045  HIT:     205511  MISS:      71534  HIT %:    74.1796  MISS %:    25.8204   MPKI: 0.35767
LLC LOAD TRANSLATION ACCESS:      54272  HIT:      29407  MISS:      24865  HIT %:    54.1845  MISS %:    45.8155   MPKI: 0.124325
LLC TRANSLATION FROM L1D PREFETCHER ACCESS:      23267  HIT:        657  MISS:      22610  HIT %:    2.82374  MISS %:    97.1763   MPKI: 0.11305
LLC PREFETCH  REQUESTED:          0  ISSUED:          0  USEFUL:       1945  USELESS:   10713795
LLC USEFUL LOAD PREFETCHES:       1945 PREFETCH ISSUED TO LOWER LEVEL:   10692647  ACCURACY: 0.0181901
LLC TIMELY PREFETCHES:       1945 LATE PREFETCHES: 0 DROPPED PREFETCHES: 0
LLC PREFETCHES SAME FILL-ORIGIN LEVEL: 0 DIFFERENT FILL-ORIGIN LEVEL: 0
LLC AVERAGE MISS LATENCY: 122.881 cycles
LLC RQ	ACCESS:   14590711	FORWARD:          0	MERGED:          0	TO_CACHE:   14590700
LLC WQ	ACCESS:     277045	FORWARD:         11	MERGED:          0	TO_CACHE:     277045
LLC PQ	ACCESS:   11320873	FORWARD:          0	MERGED:          0	TO_CACHE:   11320873

LLC Dense regions hint to LLC: 0

RAW hits: 461776
Loads Generated: 71752500
Loads sent to L1D: 71290723
Stores Generated: 3578449
Stores sent to L1D: 3578449
Major fault: 0 Minor fault: 219750
Allocated PAGES: 219750

DRAM Statistics
 CHANNEL 0
 RQ ROW_BUFFER_HIT:    9255289  ROW_BUFFER_MISS:    4383507
 DBUS_CONGESTED:       3093
 WQ ROW_BUFFER_HIT:      37155  ROW_BUFFER_MISS:      57648  FULL:          0

 AVG_CONGESTED_CYCLE: 4
 All warmup complete: 2
Channel 0 Bank busy for read cycles: 0
Channel 0 Bank busy for write cycles: 0
Channel 0
Rank 0
0banks busy for read cycles: 353245441
0banks busy for write cycles: 71824
1banks busy for read cycles: 236212906
1banks busy for write cycles: 16483783
2banks busy for read cycles: 115233034
2banks busy for write cycles: 1922811
3banks busy for read cycles: 57574675
3banks busy for write cycles: 412698
4banks busy for read cycles: 30384804
4banks busy for write cycles: 160852
5banks busy for read cycles: 20315056
5banks busy for write cycles: 98543
6banks busy for read cycles: 14367711
6banks busy for write cycles: 62921
7banks busy for read cycles: 10120728
7banks busy for write cycles: 54767
8banks busy for read cycles: 12604588
8banks busy for write cycles: 51093

CPU 0 Branch Prediction Accuracy: 96.4798% MPKI: 9.16202 Average ROB Occupancy at Mispredict: 50.017
Branch types
NOT_BRANCH: 138818908 69.4095%
BRANCH_DIRECT_JUMP: 7722186 3.86109%
BRANCH_INDIRECT: 0 0%
BRANCH_CONDITIONAL: 52053291 26.0266%
BRANCH_DIRECT_CALL: 648844 0.324422%
BRANCH_INDIRECT_CALL: 53834 0.026917%
BRANCH_RETURN: 702677 0.351338%
BRANCH_OTHER: 0 0%

DRAM PAGES: 1048576
Allocated PAGES: 219750
