 (TOTAL 67349)
 
*** ChampSim Multicore Out-of-Order Simulator ***

Warmup Instructions: 50000000
Simulation Instructions: 200000000
Number of CPUs: 1
LLC sets: 2048
LLC ways: 16
Off-chip DRAM Size: 4096 MB Channels: 1 Width: 64-bit Data Rate: 6400 MT/s
argv[0]: ./ChampSim/Berti/bin/tagescl8kb-no-vberti-no-no-no-no-no-lru-lru-lru-srrip-drrip-lru-lru-lru-1core-no
argv[1]: -warmup_instructions
argv[2]: 50000000
argv[3]: -simulation_instructions
argv[4]: 200000000
argv[5]: -traces
argv[6]: traces/spec2k17_ten/619.lbm_s-2676B.champsimtrace.xz
CPU 0 runs traces/spec2k17_ten/619.lbm_s-2676B.champsimtrace.xz
.xz
CPU 0 Tage branch predictor
BTB has LRU replacement policy
ITLB has LRU replacement policy
DTLB has LRU replacement policy
STLB has LRU replacement policy
L1I has LRU replacement policy
History Sets: 8
History Ways: 16
BERTI Size: 16
BERTI Stride Size: 16
L1D has LRU replacement policy
Initialize SRRIP state for L2C
Initialize DRRIP state for LLC
Heartbeat CPU 0 instructions: 10000003 cycles: 2904030 heartbeat IPC: 3.44349 cumulative IPC: 3.44349 (Simulation time: 0 hr 4 min 18 sec) 
Heartbeat CPU 0 instructions: 20000003 cycles: 5801927 heartbeat IPC: 3.45078 cumulative IPC: 3.44713 (Simulation time: 0 hr 8 min 17 sec) 
Heartbeat CPU 0 instructions: 30000003 cycles: 8692516 heartbeat IPC: 3.4595 cumulative IPC: 3.45125 (Simulation time: 0 hr 17 min 10 sec) 
Heartbeat CPU 0 instructions: 40000002 cycles: 11567935 heartbeat IPC: 3.47775 cumulative IPC: 3.45783 (Simulation time: 0 hr 23 min 33 sec) 
Heartbeat CPU 0 instructions: 50000001 cycles: 14430398 heartbeat IPC: 3.49349 cumulative IPC: 3.46491 (Simulation time: 0 hr 30 min 24 sec) 

Warmup complete CPU 0 instructions: 50000001 cycles: 14430398 (Simulation time: 0 hr 30 min 24 sec) 

Heartbeat CPU 0 instructions: 60000001 cycles: 30897615 heartbeat IPC: 0.607267 cumulative IPC: 0.607267 (Simulation time: 0 hr 40 min 15 sec) 
Heartbeat CPU 0 instructions: 70000002 cycles: 46672413 heartbeat IPC: 0.633923 cumulative IPC: 0.620309 (Simulation time: 0 hr 47 min 16 sec) 
Heartbeat CPU 0 instructions: 80000002 cycles: 61133289 heartbeat IPC: 0.691521 cumulative IPC: 0.642359 (Simulation time: 0 hr 58 min 46 sec) 
Heartbeat CPU 0 instructions: 90000001 cycles: 75579870 heartbeat IPC: 0.692205 cumulative IPC: 0.654135 (Simulation time: 1 hr 8 min 46 sec) 
Heartbeat CPU 0 instructions: 100000003 cycles: 89253367 heartbeat IPC: 0.731342 cumulative IPC: 0.668244 (Simulation time: 1 hr 17 min 2 sec) 
Heartbeat CPU 0 instructions: 110000000 cycles: 102650349 heartbeat IPC: 0.746437 cumulative IPC: 0.680118 (Simulation time: 1 hr 24 min 4 sec) 
Heartbeat CPU 0 instructions: 120000003 cycles: 115514908 heartbeat IPC: 0.77733 cumulative IPC: 0.69249 (Simulation time: 1 hr 33 min 35 sec) 
Heartbeat CPU 0 instructions: 130000002 cycles: 127885984 heartbeat IPC: 0.808337 cumulative IPC: 0.705122 (Simulation time: 1 hr 38 min 57 sec) 
Heartbeat CPU 0 instructions: 140000003 cycles: 140164719 heartbeat IPC: 0.814416 cumulative IPC: 0.715795 (Simulation time: 1 hr 43 min 47 sec) 
Heartbeat CPU 0 instructions: 150000003 cycles: 152025520 heartbeat IPC: 0.843113 cumulative IPC: 0.72677 (Simulation time: 1 hr 48 min 45 sec) 
Heartbeat CPU 0 instructions: 160000002 cycles: 163486180 heartbeat IPC: 0.87255 cumulative IPC: 0.737979 (Simulation time: 1 hr 54 min 20 sec) 
Heartbeat CPU 0 instructions: 170000003 cycles: 174851952 heartbeat IPC: 0.879835 cumulative IPC: 0.748029 (Simulation time: 1 hr 58 min 30 sec) 
Heartbeat CPU 0 instructions: 180000000 cycles: 186200861 heartbeat IPC: 0.881142 cumulative IPC: 0.756824 (Simulation time: 2 hr 5 min 28 sec) 
Heartbeat CPU 0 instructions: 190000000 cycles: 197268461 heartbeat IPC: 0.903538 cumulative IPC: 0.765705 (Simulation time: 2 hr 10 min 14 sec) 
Heartbeat CPU 0 instructions: 200000002 cycles: 208247231 heartbeat IPC: 0.910849 cumulative IPC: 0.773927 (Simulation time: 2 hr 14 min 47 sec) 
Heartbeat CPU 0 instructions: 210000000 cycles: 219065784 heartbeat IPC: 0.924338 cumulative IPC: 0.781878 (Simulation time: 2 hr 21 min 50 sec) 
Heartbeat CPU 0 instructions: 220000000 cycles: 229904558 heartbeat IPC: 0.922614 cumulative IPC: 0.788958 (Simulation time: 2 hr 30 min 20 sec) 
Heartbeat CPU 0 instructions: 230000002 cycles: 240530031 heartbeat IPC: 0.941135 cumulative IPC: 0.796109 (Simulation time: 2 hr 35 min 59 sec) 
Heartbeat CPU 0 instructions: 240000001 cycles: 251286589 heartbeat IPC: 0.929665 cumulative IPC: 0.802175 (Simulation time: 2 hr 40 min 8 sec) 
Heartbeat CPU 0 instructions: 250000002 cycles: 261927889 heartbeat IPC: 0.939735 cumulative IPC: 0.808089 (Simulation time: 2 hr 45 min 26 sec) 
Finished CPU 0 instructions: 200000001 cycles: 247497491 cumulative IPC: 0.808089 (Simulation time: 2 hr 45 min 26 sec) 

ChampSim completed all CPUs

Region of Interest Statistics

CPU 0 cumulative IPC: 0.808089 instructions: 200000001 cycles: 247497491
ITLB TOTAL     ACCESS:   26082814  HIT:   26082814  MISS:          0  HIT %:        100  MISS %:          0   MPKI: 0
ITLB LOAD TRANSLATION ACCESS:   26082814  HIT:   26082814  MISS:          0  HIT %:        100  MISS %:          0   MPKI: 0
ITLB PREFETCH  REQUESTED:          0  ISSUED:          0  USEFUL:          0  USELESS:          0
ITLB USEFUL LOAD PREFETCHES:          0 PREFETCH ISSUED TO LOWER LEVEL:          0  ACCURACY: -nan
ITLB TIMELY PREFETCHES:          0 LATE PREFETCHES: 0 DROPPED PREFETCHES: 0
ITLB PREFETCHES SAME FILL-ORIGIN LEVEL: 0 DIFFERENT FILL-ORIGIN LEVEL: 0
ITLB AVERAGE MISS LATENCY: -nan cycles
ITLB RQ	ACCESS:   34081967	FORWARD:          0	MERGED:    7999154	TO_CACHE:   26082813

DTLB TOTAL     ACCESS:   36091031  HIT:   35937502  MISS:     153529  HIT %:    99.5746  MISS %:   0.425394   MPKI: 0.767645
DTLB LOAD TRANSLATION ACCESS:   36091031  HIT:   35937502  MISS:     153529  HIT %:    99.5746  MISS %:   0.425394   MPKI: 0.767645
DTLB PREFETCH  REQUESTED:          0  ISSUED:          0  USEFUL:          0  USELESS:          0
DTLB USEFUL LOAD PREFETCHES:          0 PREFETCH ISSUED TO LOWER LEVEL:          0  ACCURACY: -nan
DTLB TIMELY PREFETCHES:          0 LATE PREFETCHES: 0 DROPPED PREFETCHES: 0
DTLB PREFETCHES SAME FILL-ORIGIN LEVEL: 0 DIFFERENT FILL-ORIGIN LEVEL: 0
DTLB AVERAGE MISS LATENCY: 96.0917 cycles
DTLB RQ	ACCESS:   53855839	FORWARD:          0	MERGED:   17728120	TO_CACHE:   36127719

STLB TOTAL     ACCESS:    1191350  HIT:    1108057  MISS:      83293  HIT %:    93.0085  MISS %:    6.99148   MPKI: 0.416465
STLB LOAD TRANSLATION ACCESS:     153529  HIT:      70236  MISS:      83293  HIT %:    45.7477  MISS %:    54.2523   MPKI: 0.416465
STLB TRANSLATION FROM L1D PREFETCHER ACCESS:    1037821  HIT:    1037821  MISS:          0  HIT %:        100  MISS %:          0   MPKI: 0
STLB PREFETCH  REQUESTED:          0  ISSUED:          0  USEFUL:          0  USELESS:          0
STLB USEFUL LOAD PREFETCHES:          0 PREFETCH ISSUED TO LOWER LEVEL:          0  ACCURACY: -nan
STLB TIMELY PREFETCHES:          0 LATE PREFETCHES: 771 DROPPED PREFETCHES: 526218
STLB PREFETCHES SAME FILL-ORIGIN LEVEL: 0 DIFFERENT FILL-ORIGIN LEVEL: 0
STLB AVERAGE MISS LATENCY: 156.66 cycles
STLB RQ	ACCESS:   11380288	FORWARD:          0	MERGED:    9603432	TO_CACHE:    1776856

STLB Hit, L1D data hit: 0
STLB Hit, L2C data hit: 0
STLB Hit, LLC data hit: 0
STLB Hit, LLC data miss: 0
STLB STLB hints to L2: 0
L1D TOTAL     ACCESS:   57771110  HIT:   48974639  MISS:    8796471  HIT %:    84.7736  MISS %:    15.2264   MPKI: 43.9824
L1D LOAD      ACCESS:   22814495  HIT:   22226306  MISS:     588189  HIT %:    97.4219  MISS %:    2.57814   MPKI: 2.94094
L1D RFO       ACCESS:   30837046  HIT:   23375078  MISS:    7461968  HIT %:    75.8019  MISS %:    24.1981   MPKI: 37.3098
L1D PREFETCH  ACCESS:    4119569  HIT:    3373255  MISS:     746314  HIT %:    81.8837  MISS %:    18.1163   MPKI: 3.73157
L1D PREFETCH  REQUESTED:   27055348  ISSUED:   23880266  USEFUL:     744342  USELESS:       1977
L1D USEFUL LOAD PREFETCHES:     744342 PREFETCH ISSUED TO LOWER LEVEL:    5862527  ACCURACY: 12.6966
L1D TIMELY PREFETCHES:     744342 LATE PREFETCHES: 2988 DROPPED PREFETCHES: 1915649
L1D PREFETCHES SAME FILL-ORIGIN LEVEL: 749365 DIFFERENT FILL-ORIGIN LEVEL: 5113162
L1D AVERAGE MISS LATENCY: 285.819 cycles
L1D RQ	ACCESS:   46200829	FORWARD:          0	MERGED:   22090681	TO_CACHE:   22958115
L1D WQ	ACCESS:   31149766	FORWARD:    1152033	MERGED:     252042	TO_CACHE:   30897724
L1D PQ	ACCESS:   12653507	FORWARD:          0	MERGED:    1426748	TO_CACHE:   11226759

L1D UNIQUE REGIONS ACCESSED: 0
L1D REGIONS CONFLICTS: 0
L1D Cross Page Prefetch Requests: 3457010
L1D Same Page Prefetch Requests: 14126568
L1D ROI Sum of L1D PQ occupancy: 813903151
L1D PREFETCHES PUSHED FROM L2C: 0
L1I TOTAL     ACCESS:   34081967  HIT:   34081967  MISS:          0  HIT %:        100  MISS %:          0   MPKI: 0
L1I LOAD      ACCESS:   34081967  HIT:   34081967  MISS:          0  HIT %:        100  MISS %:          0   MPKI: 0
L1I PREFETCH  REQUESTED:          0  ISSUED:          0  USEFUL:          0  USELESS:          0
L1I USEFUL LOAD PREFETCHES:          0 PREFETCH ISSUED TO LOWER LEVEL:          0  ACCURACY: -nan
L1I TIMELY PREFETCHES:          0 LATE PREFETCHES: 0 DROPPED PREFETCHES: 0
L1I PREFETCHES SAME FILL-ORIGIN LEVEL: 0 DIFFERENT FILL-ORIGIN LEVEL: 0
L1I AVERAGE MISS LATENCY: -nan cycles
L1I RQ	ACCESS:   48077586	FORWARD:          0	MERGED:   13995619	TO_CACHE:   34081967

BTB TOTAL     ACCESS:    2423395  HIT:    2423389  MISS:          6  HIT %:    99.9998  MISS %: 0.000247587   MPKI: 3e-05
BTB BRANCH_DIRECT_JUMP	ACCESS:     120779  HIT:     120778  MISS:          1
BTB BRANCH_INDIRECT	ACCESS:          0  HIT:          0  MISS:          0
BTB BRANCH_CONDITIONAL	ACCESS:    2302616  HIT:    2302611  MISS:          5
BTB BRANCH_DIRECT_CALL	ACCESS:          0  HIT:          0  MISS:          0
BTB BRANCH_INDIRECT_CALL	ACCESS:          0  HIT:          0  MISS:          0
BTB BRANCH_RETURN	ACCESS:          0  HIT:          0  MISS:          0
BTB BRANCH_OTHER ACCESS:          0  HIT:          0  MISS:          0

L2C TOTAL     ACCESS:   21689356  HIT:   15792726  MISS:    5896630  HIT %:    72.8133  MISS %:    27.1867   MPKI: 29.4831
L2C LOAD      ACCESS:     585201  HIT:     450041  MISS:     135160  HIT %:    76.9037  MISS %:    23.0963   MPKI: 0.6758
L2C DATA LOAD MPKI: 0.6758
L2C INSTRUCTION LOAD MPKI: 0
L2C RFO       ACCESS:    7461968  HIT:    3354718  MISS:    4107250  HIT %:    44.9576  MISS %:    55.0424   MPKI: 20.5362
L2C PREFETCH  ACCESS:    5569851  HIT:    4370174  MISS:    1199677  HIT %:    78.4612  MISS %:    21.5388   MPKI: 5.99838
L2C DATA PREFETCH MPKI: 5.99838
L2C INSTRUCTION PREFETCH MPKI: 0
L2C WRITEBACK ACCESS:    7461965  HIT:    7018462  MISS:     443503  HIT %:    94.0565  MISS %:    5.94351   MPKI: 2.21751
L2C LOAD TRANSLATION ACCESS:      83295  HIT:      75122  MISS:       8173  HIT %:    90.1879  MISS %:    9.81211   MPKI: 0.040865
L2C TRANSLATION FROM L1D PREFETCHER ACCESS:     527076  HIT:     524209  MISS:       2867  HIT %:    99.4561  MISS %:   0.543944   MPKI: 0.014335
L2C PREFETCH  REQUESTED:          0  ISSUED:          0  USEFUL:     452736  USELESS:     750227
L2C USEFUL LOAD PREFETCHES:     452736 PREFETCH ISSUED TO LOWER LEVEL:    1216669  ACCURACY: 37.2111
L2C TIMELY PREFETCHES:     452736 LATE PREFETCHES: 16992 DROPPED PREFETCHES: 0
L2C PREFETCHES SAME FILL-ORIGIN LEVEL: 967539 DIFFERENT FILL-ORIGIN LEVEL: 0
L2C AVERAGE MISS LATENCY: 499.415 cycles
L2C RQ	ACCESS:    8657551	FORWARD:          0	MERGED:          0	TO_CACHE:    8657551
L2C WQ	ACCESS:    7461965	FORWARD:          0	MERGED:          0	TO_CACHE:    7461965
L2C PQ	ACCESS:    5844880	FORWARD:          0	MERGED:        689	TO_CACHE:    5844191

L2C Instructions Evicting Data 0
L2C Translations Evicting Data 10951
L2C Data Evicting Data 5431890
L2C Instructions Evicting Instructions 0
L2C Translations Evicting Instructions 0
L2C Data Evicting Instructions 0
L2C Instructions Evicting Translations 0
L2C Translations Evicting Translations 89
L2C Data Evicting Translations 10197
L2C Dense regions hint from L2: 0
PSCL5 TOTAL     ACCESS:     610282  HIT:     610282  MISS:          0  HIT %:        100  MISS %:          0   MPKI: 0
PSCL5 LOAD TRANSLATION ACCESS:      83293  HIT:      83293  MISS:          0  HIT %:        100  MISS %:          0   MPKI: 0
PSCL5 TRANSLATION FROM L1D PREFETCHER ACCESS:     526989  HIT:     526989  MISS:          0  HIT %:        100  MISS %:          0   MPKI: 0
PSCL5 PREFETCH  REQUESTED:          0  ISSUED:          0  USEFUL:          0  USELESS:          0
PSCL5 USEFUL LOAD PREFETCHES:          0 PREFETCH ISSUED TO LOWER LEVEL:          0  ACCURACY: -nan
PSCL5 TIMELY PREFETCHES:          0 LATE PREFETCHES: 0 DROPPED PREFETCHES: 0
PSCL5 PREFETCHES SAME FILL-ORIGIN LEVEL: 0 DIFFERENT FILL-ORIGIN LEVEL: 0

PSCL4 TOTAL     ACCESS:     610282  HIT:     610282  MISS:          0  HIT %:        100  MISS %:          0   MPKI: 0
PSCL4 LOAD TRANSLATION ACCESS:      83293  HIT:      83293  MISS:          0  HIT %:        100  MISS %:          0   MPKI: 0
PSCL4 TRANSLATION FROM L1D PREFETCHER ACCESS:     526989  HIT:     526989  MISS:          0  HIT %:        100  MISS %:          0   MPKI: 0
PSCL4 PREFETCH  REQUESTED:          0  ISSUED:          0  USEFUL:          0  USELESS:          0
PSCL4 USEFUL LOAD PREFETCHES:          0 PREFETCH ISSUED TO LOWER LEVEL:          0  ACCURACY: -nan
PSCL4 TIMELY PREFETCHES:          0 LATE PREFETCHES: 0 DROPPED PREFETCHES: 0
PSCL4 PREFETCHES SAME FILL-ORIGIN LEVEL: 0 DIFFERENT FILL-ORIGIN LEVEL: 0

PSCL3 TOTAL     ACCESS:     610282  HIT:     610282  MISS:          0  HIT %:        100  MISS %:          0   MPKI: 0
PSCL3 LOAD TRANSLATION ACCESS:      83293  HIT:      83293  MISS:          0  HIT %:        100  MISS %:          0   MPKI: 0
PSCL3 TRANSLATION FROM L1D PREFETCHER ACCESS:     526989  HIT:     526989  MISS:          0  HIT %:        100  MISS %:          0   MPKI: 0
PSCL3 PREFETCH  REQUESTED:          0  ISSUED:          0  USEFUL:          0  USELESS:          0
PSCL3 USEFUL LOAD PREFETCHES:          0 PREFETCH ISSUED TO LOWER LEVEL:          0  ACCURACY: -nan
PSCL3 TIMELY PREFETCHES:          0 LATE PREFETCHES: 0 DROPPED PREFETCHES: 0
PSCL3 PREFETCHES SAME FILL-ORIGIN LEVEL: 0 DIFFERENT FILL-ORIGIN LEVEL: 0

PSCL2 TOTAL     ACCESS:     607604  HIT:     607521  MISS:         83  HIT %:    99.9863  MISS %:  0.0136602   MPKI: 0.000415
PSCL2 LOAD TRANSLATION ACCESS:      83293  HIT:      83210  MISS:         83  HIT %:    99.9004  MISS %:  0.0996482   MPKI: 0.000415
PSCL2 TRANSLATION FROM L1D PREFETCHER ACCESS:     524311  HIT:     524311  MISS:          0  HIT %:        100  MISS %:          0   MPKI: 0
PSCL2 PREFETCH  REQUESTED:          0  ISSUED:          0  USEFUL:          0  USELESS:          0
PSCL2 USEFUL LOAD PREFETCHES:          0 PREFETCH ISSUED TO LOWER LEVEL:          0  ACCURACY: -nan
PSCL2 TIMELY PREFETCHES:          0 LATE PREFETCHES: 0 DROPPED PREFETCHES: 0
PSCL2 PREFETCHES SAME FILL-ORIGIN LEVEL: 0 DIFFERENT FILL-ORIGIN LEVEL: 0

LLC TOTAL     ACCESS:    9574939  HIT:    4164163  MISS:    5410776  HIT %:    43.4902  MISS %:    56.5098   MPKI: 27.0539
LLC LOAD      ACCESS:     118168  HIT:        186  MISS:     117982  HIT %:   0.157403  MISS %:    99.8426   MPKI: 0.58991
LLC RFO       ACCESS:    4107207  HIT:     109770  MISS:    3997437  HIT %:    2.67262  MISS %:    97.3274   MPKI: 19.9872
LLC PREFETCH  ACCESS:    1216669  HIT:       1782  MISS:    1214887  HIT %:   0.146465  MISS %:    99.8535   MPKI: 6.07443
LLC WRITEBACK ACCESS:    4121855  HIT:    4051906  MISS:      69949  HIT %:     98.303  MISS %:    1.69703   MPKI: 0.349745
LLC LOAD TRANSLATION ACCESS:       8173  HIT:        306  MISS:       7867  HIT %:    3.74404  MISS %:     96.256   MPKI: 0.039335
LLC TRANSLATION FROM L1D PREFETCHER ACCESS:       2867  HIT:        213  MISS:       2654  HIT %:    7.42937  MISS %:    92.5706   MPKI: 0.01327
LLC PREFETCH  REQUESTED:          0  ISSUED:          0  USEFUL:        338  USELESS:    1216181
LLC USEFUL LOAD PREFETCHES:        338 PREFETCH ISSUED TO LOWER LEVEL:    1214887  ACCURACY: 0.0278215
LLC TIMELY PREFETCHES:        338 LATE PREFETCHES: 0 DROPPED PREFETCHES: 0
LLC PREFETCHES SAME FILL-ORIGIN LEVEL: 0 DIFFERENT FILL-ORIGIN LEVEL: 0
LLC AVERAGE MISS LATENCY: 515.401 cycles
LLC RQ	ACCESS:    4236469	FORWARD:          0	MERGED:          0	TO_CACHE:    4236426
LLC WQ	ACCESS:    4121856	FORWARD:         43	MERGED:          0	TO_CACHE:    4121856
LLC PQ	ACCESS:    1216669	FORWARD:          0	MERGED:          0	TO_CACHE:    1216669

LLC Dense regions hint to LLC: 0

RAW hits: 1558265
Loads Generated: 47759096
Loads sent to L1D: 46200829
Stores Generated: 31149748
Stores sent to L1D: 31149766
Major fault: 0 Minor fault: 61402
Allocated PAGES: 61402

DRAM Statistics
 CHANNEL 0
 RQ ROW_BUFFER_HIT:     507596  ROW_BUFFER_MISS:    4833231
 DBUS_CONGESTED:          0
 WQ ROW_BUFFER_HIT:     612665  ROW_BUFFER_MISS:    3385979  FULL:        116

 AVG_CONGESTED_CYCLE: -
 All warmup complete: 2
Channel 0 Bank busy for read cycles: 0
Channel 0 Bank busy for write cycles: 0
Channel 0
Rank 0
0banks busy for read cycles: 69470
0banks busy for write cycles: 0
1banks busy for read cycles: 3833680
1banks busy for write cycles: 416802
2banks busy for read cycles: 7684515
2banks busy for write cycles: 416794
3banks busy for read cycles: 14793392
3banks busy for write cycles: 416783
4banks busy for read cycles: 14951403
4banks busy for write cycles: 416760
5banks busy for read cycles: 27777782
5banks busy for write cycles: 416829
6banks busy for read cycles: 27384947
6banks busy for write cycles: 427442
7banks busy for read cycles: 28616029
7banks busy for write cycles: 4733680
8banks busy for read cycles: 27154738
8banks busy for write cycles: 87986446

CPU 0 Branch Prediction Accuracy: 99.0926% MPKI: 0.10447 Average ROB Occupancy at Mispredict: 129.129
Branch types
NOT_BRANCH: 197576270 98.7881%
BRANCH_DIRECT_JUMP: 120779 0.0603895%
BRANCH_INDIRECT: 0 0%
BRANCH_CONDITIONAL: 2302626 1.15131%
BRANCH_DIRECT_CALL: 0 0%
BRANCH_INDIRECT_CALL: 0 0%
BRANCH_RETURN: 0 0%
BRANCH_OTHER: 0 0%

DRAM PAGES: 1048576
Allocated PAGES: 61402
