 (TOTAL 67349)
 
*** ChampSim Multicore Out-of-Order Simulator ***

Warmup Instructions: 50000000
Simulation Instructions: 200000000
Number of CPUs: 1
LLC sets: 2048
LLC ways: 16
Off-chip DRAM Size: 4096 MB Channels: 1 Width: 64-bit Data Rate: 6400 MT/s
argv[0]: ./ChampSim/Berti/bin/tagescl8kb-no-vberti-no-no-no-no-no-lru-lru-lru-srrip-drrip-lru-lru-lru-1core-no
argv[1]: -warmup_instructions
argv[2]: 50000000
argv[3]: -simulation_instructions
argv[4]: 200000000
argv[5]: -traces
argv[6]: traces/spec2k17_ten/619.lbm_s-3766B.champsimtrace.xz
CPU 0 runs traces/spec2k17_ten/619.lbm_s-3766B.champsimtrace.xz
.xz
CPU 0 Tage branch predictor
BTB has LRU replacement policy
ITLB has LRU replacement policy
DTLB has LRU replacement policy
STLB has LRU replacement policy
L1I has LRU replacement policy
History Sets: 8
History Ways: 16
BERTI Size: 16
BERTI Stride Size: 16
L1D has LRU replacement policy
Initialize SRRIP state for L2C
Initialize DRRIP state for LLC
Heartbeat CPU 0 instructions: 10000000 cycles: 2733191 heartbeat IPC: 3.65873 cumulative IPC: 3.65873 (Simulation time: 0 hr 5 min 8 sec) 
Heartbeat CPU 0 instructions: 20000002 cycles: 5469278 heartbeat IPC: 3.65486 cumulative IPC: 3.65679 (Simulation time: 0 hr 12 min 57 sec) 
Heartbeat CPU 0 instructions: 30000000 cycles: 8202585 heartbeat IPC: 3.65857 cumulative IPC: 3.65738 (Simulation time: 0 hr 18 min 55 sec) 
Heartbeat CPU 0 instructions: 40000001 cycles: 10938733 heartbeat IPC: 3.65477 cumulative IPC: 3.65673 (Simulation time: 0 hr 26 min 13 sec) 
Heartbeat CPU 0 instructions: 50000000 cycles: 13674887 heartbeat IPC: 3.65476 cumulative IPC: 3.65634 (Simulation time: 0 hr 30 min 11 sec) 

Warmup complete CPU 0 instructions: 50000004 cycles: 13674888 (Simulation time: 0 hr 30 min 11 sec) 

Heartbeat CPU 0 instructions: 60000000 cycles: 23963286 heartbeat IPC: 0.971969 cumulative IPC: 0.971968 (Simulation time: 0 hr 35 min 22 sec) 
Heartbeat CPU 0 instructions: 70000001 cycles: 34440888 heartbeat IPC: 0.954417 cumulative IPC: 0.963113 (Simulation time: 0 hr 41 min 1 sec) 
Heartbeat CPU 0 instructions: 80000002 cycles: 44783737 heartbeat IPC: 0.966852 cumulative IPC: 0.964356 (Simulation time: 0 hr 46 min 46 sec) 
Heartbeat CPU 0 instructions: 90000001 cycles: 55248576 heartbeat IPC: 0.955581 cumulative IPC: 0.962147 (Simulation time: 0 hr 55 min 10 sec) 
Heartbeat CPU 0 instructions: 100000000 cycles: 65565024 heartbeat IPC: 0.969326 cumulative IPC: 0.963574 (Simulation time: 1 hr 2 min 30 sec) 
Heartbeat CPU 0 instructions: 110000000 cycles: 76389454 heartbeat IPC: 0.923836 cumulative IPC: 0.956715 (Simulation time: 1 hr 11 min 21 sec) 
Heartbeat CPU 0 instructions: 120000003 cycles: 87358901 heartbeat IPC: 0.911623 cumulative IPC: 0.950003 (Simulation time: 1 hr 17 min 31 sec) 
Heartbeat CPU 0 instructions: 130000000 cycles: 100310528 heartbeat IPC: 0.772104 cumulative IPC: 0.923407 (Simulation time: 1 hr 23 min 47 sec) 
Heartbeat CPU 0 instructions: 140000002 cycles: 114558691 heartbeat IPC: 0.701845 cumulative IPC: 0.892115 (Simulation time: 1 hr 32 min 27 sec) 
Heartbeat CPU 0 instructions: 150000003 cycles: 131040172 heartbeat IPC: 0.606742 cumulative IPC: 0.852041 (Simulation time: 1 hr 41 min 56 sec) 
Heartbeat CPU 0 instructions: 160000002 cycles: 151308102 heartbeat IPC: 0.49339 cumulative IPC: 0.799226 (Simulation time: 1 hr 49 min 36 sec) 
Heartbeat CPU 0 instructions: 170000003 cycles: 175770672 heartbeat IPC: 0.408788 cumulative IPC: 0.740303 (Simulation time: 1 hr 59 min 14 sec) 
Heartbeat CPU 0 instructions: 180000003 cycles: 202108626 heartbeat IPC: 0.37968 cumulative IPC: 0.689898 (Simulation time: 2 hr 10 min 31 sec) 
Heartbeat CPU 0 instructions: 190000001 cycles: 229777499 heartbeat IPC: 0.361417 cumulative IPC: 0.64784 (Simulation time: 2 hr 21 min 23 sec) 
Heartbeat CPU 0 instructions: 200000003 cycles: 255098713 heartbeat IPC: 0.394926 cumulative IPC: 0.621314 (Simulation time: 2 hr 35 min 29 sec) 
Heartbeat CPU 0 instructions: 210000003 cycles: 278939732 heartbeat IPC: 0.419445 cumulative IPC: 0.603171 (Simulation time: 2 hr 49 min 33 sec) 
Heartbeat CPU 0 instructions: 220000000 cycles: 300631372 heartbeat IPC: 0.461007 cumulative IPC: 0.592424 (Simulation time: 3 hr 0 min 35 sec) 
Heartbeat CPU 0 instructions: 230000000 cycles: 321954486 heartbeat IPC: 0.468975 cumulative IPC: 0.583886 (Simulation time: 3 hr 10 min 9 sec) 
Heartbeat CPU 0 instructions: 240000002 cycles: 342090112 heartbeat IPC: 0.496632 cumulative IPC: 0.578536 (Simulation time: 3 hr 17 min 20 sec) 
Heartbeat CPU 0 instructions: 250000000 cycles: 362779856 heartbeat IPC: 0.483331 cumulative IPC: 0.572894 (Simulation time: 3 hr 24 min 5 sec) 
Finished CPU 0 instructions: 200000000 cycles: 349104969 cumulative IPC: 0.572894 (Simulation time: 3 hr 24 min 5 sec) 

ChampSim completed all CPUs

Region of Interest Statistics

CPU 0 cumulative IPC: 0.572894 instructions: 200000000 cycles: 349104969
ITLB TOTAL     ACCESS:   26532323  HIT:   26532323  MISS:          0  HIT %:        100  MISS %:          0   MPKI: 0
ITLB LOAD TRANSLATION ACCESS:   26532323  HIT:   26532323  MISS:          0  HIT %:        100  MISS %:          0   MPKI: 0
ITLB PREFETCH  REQUESTED:          0  ISSUED:          0  USEFUL:          0  USELESS:          0
ITLB USEFUL LOAD PREFETCHES:          0 PREFETCH ISSUED TO LOWER LEVEL:          0  ACCURACY: -nan
ITLB TIMELY PREFETCHES:          0 LATE PREFETCHES: 0 DROPPED PREFETCHES: 0
ITLB PREFETCHES SAME FILL-ORIGIN LEVEL: 0 DIFFERENT FILL-ORIGIN LEVEL: 0
ITLB AVERAGE MISS LATENCY: -nan cycles
ITLB RQ	ACCESS:   34414852	FORWARD:          0	MERGED:    7882529	TO_CACHE:   26532323

DTLB TOTAL     ACCESS:   37966388  HIT:   37740675  MISS:     225713  HIT %:    99.4055  MISS %:   0.594507   MPKI: 1.12857
DTLB LOAD TRANSLATION ACCESS:   37966388  HIT:   37740675  MISS:     225713  HIT %:    99.4055  MISS %:   0.594507   MPKI: 1.12857
DTLB PREFETCH  REQUESTED:          0  ISSUED:          0  USEFUL:          0  USELESS:          0
DTLB USEFUL LOAD PREFETCHES:          0 PREFETCH ISSUED TO LOWER LEVEL:          0  ACCURACY: -nan
DTLB TIMELY PREFETCHES:          0 LATE PREFETCHES: 0 DROPPED PREFETCHES: 0
DTLB PREFETCHES SAME FILL-ORIGIN LEVEL: 0 DIFFERENT FILL-ORIGIN LEVEL: 0
DTLB AVERAGE MISS LATENCY: 102.373 cycles
DTLB RQ	ACCESS:   55822238	FORWARD:          0	MERGED:   17772033	TO_CACHE:   38050205

STLB TOTAL     ACCESS:    1351238  HIT:    1228787  MISS:     122451  HIT %:    90.9379  MISS %:    9.06213   MPKI: 0.612255
STLB LOAD TRANSLATION ACCESS:     225713  HIT:     103262  MISS:     122451  HIT %:    45.7492  MISS %:    54.2508   MPKI: 0.612255
STLB TRANSLATION FROM L1D PREFETCHER ACCESS:    1125525  HIT:    1125525  MISS:          0  HIT %:        100  MISS %:          0   MPKI: 0
STLB PREFETCH  REQUESTED:          0  ISSUED:          0  USEFUL:          0  USELESS:          0
STLB USEFUL LOAD PREFETCHES:          0 PREFETCH ISSUED TO LOWER LEVEL:          0  ACCURACY: -nan
STLB TIMELY PREFETCHES:          0 LATE PREFETCHES: 2323 DROPPED PREFETCHES: 760926
STLB PREFETCHES SAME FILL-ORIGIN LEVEL: 0 DIFFERENT FILL-ORIGIN LEVEL: 0
STLB AVERAGE MISS LATENCY: 171.361 cycles
STLB RQ	ACCESS:   11412394	FORWARD:          0	MERGED:    9238869	TO_CACHE:    2173525

STLB Hit, L1D data hit: 0
STLB Hit, L2C data hit: 0
STLB Hit, LLC data hit: 0
STLB Hit, LLC data miss: 0
STLB STLB hints to L2: 0
L1D TOTAL     ACCESS:   58676198  HIT:   45741759  MISS:   12934439  HIT %:    77.9562  MISS %:    22.0438   MPKI: 64.6722
L1D LOAD      ACCESS:   21613778  HIT:   20252755  MISS:    1361023  HIT %:     93.703  MISS %:    6.29702   MPKI: 6.80511
L1D RFO       ACCESS:   33858985  HIT:   22888473  MISS:   10970512  HIT %:    67.5994  MISS %:    32.4006   MPKI: 54.8526
L1D PREFETCH  ACCESS:    3203435  HIT:    2600531  MISS:     602904  HIT %:    81.1795  MISS %:    18.8205   MPKI: 3.01452
L1D PREFETCH  REQUESTED:   31820898  ISSUED:   23694415  USEFUL:     598192  USELESS:       4717
L1D USEFUL LOAD PREFETCHES:     598192 PREFETCH ISSUED TO LOWER LEVEL:    5842433  ACCURACY: 10.2387
L1D TIMELY PREFETCHES:     598192 LATE PREFETCHES: 7136 DROPPED PREFETCHES: 2628840
L1D PREFETCHES SAME FILL-ORIGIN LEVEL: 610705 DIFFERENT FILL-ORIGIN LEVEL: 5231728
L1D AVERAGE MISS LATENCY: 323.102 cycles
L1D RQ	ACCESS:   48203268	FORWARD:          0	MERGED:   24232361	TO_CACHE:   21813498
L1D WQ	ACCESS:   34563860	FORWARD:    2157409	MERGED:     555120	TO_CACHE:   34008740
L1D PQ	ACCESS:   12507734	FORWARD:          0	MERGED:    1321053	TO_CACHE:   11186681

L1D UNIQUE REGIONS ACCESSED: 0
L1D REGIONS CONFLICTS: 0
L1D Cross Page Prefetch Requests: 4017933
L1D Same Page Prefetch Requests: 12122950
L1D ROI Sum of L1D PQ occupancy: 1895058747
L1D PREFETCHES PUSHED FROM L2C: 0
L1I TOTAL     ACCESS:   34414850  HIT:   34414850  MISS:          0  HIT %:        100  MISS %:          0   MPKI: 0
L1I LOAD      ACCESS:   34414850  HIT:   34414850  MISS:          0  HIT %:        100  MISS %:          0   MPKI: 0
L1I PREFETCH  REQUESTED:          0  ISSUED:          0  USEFUL:          0  USELESS:          0
L1I USEFUL LOAD PREFETCHES:          0 PREFETCH ISSUED TO LOWER LEVEL:          0  ACCURACY: -nan
L1I TIMELY PREFETCHES:          0 LATE PREFETCHES: 0 DROPPED PREFETCHES: 0
L1I PREFETCHES SAME FILL-ORIGIN LEVEL: 0 DIFFERENT FILL-ORIGIN LEVEL: 0
L1I AVERAGE MISS LATENCY: -nan cycles
L1I RQ	ACCESS:   49051888	FORWARD:          0	MERGED:   14637036	TO_CACHE:   34414852

BTB TOTAL     ACCESS:    3122106  HIT:    3122100  MISS:          6  HIT %:    99.9998  MISS %: 0.000192178   MPKI: 3e-05
BTB BRANCH_DIRECT_JUMP	ACCESS:     397756  HIT:     397755  MISS:          1
BTB BRANCH_INDIRECT	ACCESS:          0  HIT:          0  MISS:          0
BTB BRANCH_CONDITIONAL	ACCESS:    2724350  HIT:    2724345  MISS:          5
BTB BRANCH_DIRECT_CALL	ACCESS:          0  HIT:          0  MISS:          0
BTB BRANCH_INDIRECT_CALL	ACCESS:          0  HIT:          0  MISS:          0
BTB BRANCH_RETURN	ACCESS:          0  HIT:          0  MISS:          0
BTB BRANCH_OTHER ACCESS:          0  HIT:          0  MISS:          0

L2C TOTAL     ACCESS:   29808499  HIT:   21160517  MISS:    8647982  HIT %:    70.9882  MISS %:    29.0118   MPKI: 43.2399
L2C LOAD      ACCESS:    1353887  HIT:    1018967  MISS:     334920  HIT %:    75.2623  MISS %:    24.7377   MPKI: 1.6746
L2C DATA LOAD MPKI: 1.6746
L2C INSTRUCTION LOAD MPKI: 0
L2C RFO       ACCESS:   10970508  HIT:    4951843  MISS:    6018665  HIT %:    45.1378  MISS %:    54.8622   MPKI: 30.0933
L2C PREFETCH  ACCESS:    5399112  HIT:    3771211  MISS:    1627901  HIT %:    69.8487  MISS %:    30.1513   MPKI: 8.1395
L2C DATA PREFETCH MPKI: 8.1395
L2C INSTRUCTION PREFETCH MPKI: 0
L2C WRITEBACK ACCESS:   10970507  HIT:   10320485  MISS:     650022  HIT %:    94.0748  MISS %:    5.92518   MPKI: 3.25011
L2C LOAD TRANSLATION ACCESS:     122454  HIT:     110445  MISS:      12009  HIT %:    90.1931  MISS %:    9.80695   MPKI: 0.060045
L2C TRANSLATION FROM L1D PREFETCHER ACCESS:     992031  HIT:     987566  MISS:       4465  HIT %:    99.5499  MISS %:   0.450087   MPKI: 0.022325
L2C PREFETCH  REQUESTED:          0  ISSUED:          0  USEFUL:    1022886  USELESS:     610917
L2C USEFUL LOAD PREFETCHES:    1022886 PREFETCH ISSUED TO LOWER LEVEL:    1679167  ACCURACY: 60.9163
L2C TIMELY PREFETCHES:    1022886 LATE PREFETCHES: 51264 DROPPED PREFETCHES: 0
L2C PREFETCHES SAME FILL-ORIGIN LEVEL: 1488343 DIFFERENT FILL-ORIGIN LEVEL: 0
L2C AVERAGE MISS LATENCY: 565.692 cycles
L2C RQ	ACCESS:   13438896	FORWARD:          0	MERGED:          0	TO_CACHE:   13438892
L2C WQ	ACCESS:   10970507	FORWARD:          4	MERGED:          0	TO_CACHE:   10970507
L2C PQ	ACCESS:    5745895	FORWARD:          0	MERGED:       1787	TO_CACHE:    5744108

L2C Instructions Evicting Data 0
L2C Translations Evicting Data 16423
L2C Data Evicting Data 7966039
L2C Instructions Evicting Instructions 0
L2C Translations Evicting Instructions 0
L2C Data Evicting Instructions 0
L2C Instructions Evicting Translations 0
L2C Translations Evicting Translations 51
L2C Data Evicting Translations 15447
L2C Dense regions hint from L2: 0
PSCL5 TOTAL     ACCESS:     885700  HIT:     885700  MISS:          0  HIT %:        100  MISS %:          0   MPKI: 0
PSCL5 LOAD TRANSLATION ACCESS:     122451  HIT:     122451  MISS:          0  HIT %:        100  MISS %:          0   MPKI: 0
PSCL5 TRANSLATION FROM L1D PREFETCHER ACCESS:     763249  HIT:     763249  MISS:          0  HIT %:        100  MISS %:          0   MPKI: 0
PSCL5 PREFETCH  REQUESTED:          0  ISSUED:          0  USEFUL:          0  USELESS:          0
PSCL5 USEFUL LOAD PREFETCHES:          0 PREFETCH ISSUED TO LOWER LEVEL:          0  ACCURACY: -nan
PSCL5 TIMELY PREFETCHES:          0 LATE PREFETCHES: 0 DROPPED PREFETCHES: 0
PSCL5 PREFETCHES SAME FILL-ORIGIN LEVEL: 0 DIFFERENT FILL-ORIGIN LEVEL: 0

PSCL4 TOTAL     ACCESS:     885700  HIT:     885700  MISS:          0  HIT %:        100  MISS %:          0   MPKI: 0
PSCL4 LOAD TRANSLATION ACCESS:     122451  HIT:     122451  MISS:          0  HIT %:        100  MISS %:          0   MPKI: 0
PSCL4 TRANSLATION FROM L1D PREFETCHER ACCESS:     763249  HIT:     763249  MISS:          0  HIT %:        100  MISS %:          0   MPKI: 0
PSCL4 PREFETCH  REQUESTED:          0  ISSUED:          0  USEFUL:          0  USELESS:          0
PSCL4 USEFUL LOAD PREFETCHES:          0 PREFETCH ISSUED TO LOWER LEVEL:          0  ACCURACY: -nan
PSCL4 TIMELY PREFETCHES:          0 LATE PREFETCHES: 0 DROPPED PREFETCHES: 0
PSCL4 PREFETCHES SAME FILL-ORIGIN LEVEL: 0 DIFFERENT FILL-ORIGIN LEVEL: 0

PSCL3 TOTAL     ACCESS:     885700  HIT:     885699  MISS:          1  HIT %:    99.9999  MISS %: 0.000112905   MPKI: 5e-06
PSCL3 LOAD TRANSLATION ACCESS:     122451  HIT:     122450  MISS:          1  HIT %:    99.9992  MISS %: 0.000816653   MPKI: 5e-06
PSCL3 TRANSLATION FROM L1D PREFETCHER ACCESS:     763249  HIT:     763249  MISS:          0  HIT %:        100  MISS %:          0   MPKI: 0
PSCL3 PREFETCH  REQUESTED:          0  ISSUED:          0  USEFUL:          0  USELESS:          0
PSCL3 USEFUL LOAD PREFETCHES:          0 PREFETCH ISSUED TO LOWER LEVEL:          0  ACCURACY: -nan
PSCL3 TIMELY PREFETCHES:          0 LATE PREFETCHES: 0 DROPPED PREFETCHES: 0
PSCL3 PREFETCHES SAME FILL-ORIGIN LEVEL: 0 DIFFERENT FILL-ORIGIN LEVEL: 0

PSCL2 TOTAL     ACCESS:     654385  HIT:     654262  MISS:        123  HIT %:    99.9812  MISS %:  0.0187963   MPKI: 0.000615
PSCL2 LOAD TRANSLATION ACCESS:     122451  HIT:     122328  MISS:        123  HIT %:    99.8996  MISS %:   0.100448   MPKI: 0.000615
PSCL2 TRANSLATION FROM L1D PREFETCHER ACCESS:     531934  HIT:     531934  MISS:          0  HIT %:        100  MISS %:          0   MPKI: 0
PSCL2 PREFETCH  REQUESTED:          0  ISSUED:          0  USEFUL:          0  USELESS:          0
PSCL2 USEFUL LOAD PREFETCHES:          0 PREFETCH ISSUED TO LOWER LEVEL:          0  ACCURACY: -nan
PSCL2 TIMELY PREFETCHES:          0 LATE PREFETCHES: 0 DROPPED PREFETCHES: 0
PSCL2 PREFETCHES SAME FILL-ORIGIN LEVEL: 0 DIFFERENT FILL-ORIGIN LEVEL: 0

LLC TOTAL     ACCESS:   14032295  HIT:    5699268  MISS:    8333027  HIT %:    40.6154  MISS %:    59.3846   MPKI: 41.6651
LLC LOAD      ACCESS:     283656  HIT:        937  MISS:     282719  HIT %:    0.33033  MISS %:    99.6697   MPKI: 1.41359
LLC RFO       ACCESS:    6018600  HIT:     141885  MISS:    5876715  HIT %:    2.35744  MISS %:    97.6426   MPKI: 29.3836
LLC PREFETCH  ACCESS:    1679165  HIT:       2620  MISS:    1676545  HIT %:    0.15603  MISS %:     99.844   MPKI: 8.38273
LLC WRITEBACK ACCESS:    6034400  HIT:    5552866  MISS:     481534  HIT %:    92.0202  MISS %:    7.97982   MPKI: 2.40767
LLC LOAD TRANSLATION ACCESS:      12009  HIT:        419  MISS:      11590  HIT %:    3.48905  MISS %:     96.511   MPKI: 0.05795
LLC TRANSLATION FROM L1D PREFETCHER ACCESS:       4465  HIT:        541  MISS:       3924  HIT %:    12.1165  MISS %:    87.8835   MPKI: 0.01962
LLC PREFETCH  REQUESTED:          0  ISSUED:          0  USEFUL:       1175  USELESS:    1683962
LLC USEFUL LOAD PREFETCHES:       1175 PREFETCH ISSUED TO LOWER LEVEL:    1676547  ACCURACY: 0.0700845
LLC TIMELY PREFETCHES:       1175 LATE PREFETCHES: 0 DROPPED PREFETCHES: 0
LLC PREFETCHES SAME FILL-ORIGIN LEVEL: 0 DIFFERENT FILL-ORIGIN LEVEL: 0
LLC AVERAGE MISS LATENCY: 561.424 cycles
LLC RQ	ACCESS:    6318804	FORWARD:          0	MERGED:          0	TO_CACHE:    6318739
LLC WQ	ACCESS:    6034400	FORWARD:         65	MERGED:          0	TO_CACHE:    6034400
LLC PQ	ACCESS:    1679167	FORWARD:          0	MERGED:          0	TO_CACHE:    1679167

LLC Dense regions hint to LLC: 0

RAW hits: 2190624
Loads Generated: 50393892
Loads sent to L1D: 48203268
Stores Generated: 34563857
Stores sent to L1D: 34563860
Major fault: 0 Minor fault: 72955
Allocated PAGES: 72955

DRAM Statistics
 CHANNEL 0
 RQ ROW_BUFFER_HIT:     824217  ROW_BUFFER_MISS:    7027276
 DBUS_CONGESTED:          0
 WQ ROW_BUFFER_HIT:     902879  ROW_BUFFER_MISS:    4970048  FULL:       5340

 AVG_CONGESTED_CYCLE: -
 All warmup complete: 2
Channel 0 Bank busy for read cycles: 0
Channel 0 Bank busy for write cycles: 0
Channel 0
Rank 0
0banks busy for read cycles: 62351
0banks busy for write cycles: 0
1banks busy for read cycles: 4153276
1banks busy for write cycles: 590413
2banks busy for read cycles: 7101236
2banks busy for write cycles: 590412
3banks busy for read cycles: 13054351
3banks busy for write cycles: 590405
4banks busy for read cycles: 16603841
4banks busy for write cycles: 590397
5banks busy for read cycles: 32652551
5banks busy for write cycles: 590463
6banks busy for read cycles: 39492687
6banks busy for write cycles: 614497
7banks busy for read cycles: 46251921
7banks busy for write cycles: 7118243
8banks busy for read cycles: 50146375
8banks busy for write cycles: 128901551

CPU 0 Branch Prediction Accuracy: 97.3401% MPKI: 0.36235 Average ROB Occupancy at Mispredict: 181.269
Branch types
NOT_BRANCH: 196877391 98.4387%
BRANCH_DIRECT_JUMP: 397756 0.198878%
BRANCH_INDIRECT: 0 0%
BRANCH_CONDITIONAL: 2724544 1.36227%
BRANCH_DIRECT_CALL: 0 0%
BRANCH_INDIRECT_CALL: 0 0%
BRANCH_RETURN: 0 0%
BRANCH_OTHER: 0 0%

DRAM PAGES: 1048576
Allocated PAGES: 72955
