 (TOTAL 67349)
 
*** ChampSim Multicore Out-of-Order Simulator ***

Warmup Instructions: 50000000
Simulation Instructions: 200000000
Number of CPUs: 1
LLC sets: 2048
LLC ways: 16
Off-chip DRAM Size: 4096 MB Channels: 1 Width: 64-bit Data Rate: 6400 MT/s
argv[0]: ./ChampSim/Berti/bin/tagescl8kb-no-vberti-no-no-no-no-no-lru-lru-lru-srrip-drrip-lru-lru-lru-1core-no
argv[1]: -warmup_instructions
argv[2]: 50000000
argv[3]: -simulation_instructions
argv[4]: 200000000
argv[5]: -traces
argv[6]: traces/spec2k17_ten/649.fotonik3d_s-1176B.champsimtrace.xz
CPU 0 runs traces/spec2k17_ten/649.fotonik3d_s-1176B.champsimtrace.xz
.xz
CPU 0 Tage branch predictor
BTB has LRU replacement policy
ITLB has LRU replacement policy
DTLB has LRU replacement policy
STLB has LRU replacement policy
L1I has LRU replacement policy
History Sets: 8
History Ways: 16
BERTI Size: 16
BERTI Stride Size: 16
L1D has LRU replacement policy
Initialize SRRIP state for L2C
Initialize DRRIP state for LLC
Heartbeat CPU 0 instructions: 10000000 cycles: 2903009 heartbeat IPC: 3.4447 cumulative IPC: 3.4447 (Simulation time: 0 hr 4 min 35 sec) 
Heartbeat CPU 0 instructions: 20000002 cycles: 5805910 heartbeat IPC: 3.44483 cumulative IPC: 3.44477 (Simulation time: 0 hr 8 min 17 sec) 
Heartbeat CPU 0 instructions: 30000001 cycles: 8708816 heartbeat IPC: 3.44482 cumulative IPC: 3.44479 (Simulation time: 0 hr 13 min 26 sec) 
Heartbeat CPU 0 instructions: 40000003 cycles: 11611786 heartbeat IPC: 3.44475 cumulative IPC: 3.44478 (Simulation time: 0 hr 17 min 52 sec) 
Heartbeat CPU 0 instructions: 50000001 cycles: 14514693 heartbeat IPC: 3.44482 cumulative IPC: 3.44479 (Simulation time: 0 hr 22 min 41 sec) 

Warmup complete CPU 0 instructions: 50000001 cycles: 14514693 (Simulation time: 0 hr 22 min 41 sec) 

Heartbeat CPU 0 instructions: 60000003 cycles: 24479241 heartbeat IPC: 1.00356 cumulative IPC: 1.00356 (Simulation time: 0 hr 27 min 43 sec) 
Heartbeat CPU 0 instructions: 70000000 cycles: 34443311 heartbeat IPC: 1.00361 cumulative IPC: 1.00358 (Simulation time: 0 hr 31 min 44 sec) 
Heartbeat CPU 0 instructions: 80000001 cycles: 44409683 heartbeat IPC: 1.00337 cumulative IPC: 1.00351 (Simulation time: 0 hr 36 min 10 sec) 
Heartbeat CPU 0 instructions: 90000000 cycles: 54373605 heartbeat IPC: 1.00362 cumulative IPC: 1.00354 (Simulation time: 0 hr 40 min 31 sec) 
Heartbeat CPU 0 instructions: 100000000 cycles: 64340979 heartbeat IPC: 1.00327 cumulative IPC: 1.00349 (Simulation time: 0 hr 44 min 47 sec) 
Heartbeat CPU 0 instructions: 110000000 cycles: 74304451 heartbeat IPC: 1.00367 cumulative IPC: 1.00352 (Simulation time: 0 hr 48 min 0 sec) 
Heartbeat CPU 0 instructions: 120000001 cycles: 84269517 heartbeat IPC: 1.00351 cumulative IPC: 1.00351 (Simulation time: 0 hr 50 min 14 sec) 
Heartbeat CPU 0 instructions: 130000002 cycles: 94233569 heartbeat IPC: 1.00361 cumulative IPC: 1.00353 (Simulation time: 0 hr 53 min 35 sec) 
Heartbeat CPU 0 instructions: 140000003 cycles: 104200577 heartbeat IPC: 1.00331 cumulative IPC: 1.0035 (Simulation time: 0 hr 55 min 34 sec) 
Heartbeat CPU 0 instructions: 150000000 cycles: 114163452 heartbeat IPC: 1.00373 cumulative IPC: 1.00352 (Simulation time: 0 hr 58 min 23 sec) 
Heartbeat CPU 0 instructions: 160000000 cycles: 124130043 heartbeat IPC: 1.00335 cumulative IPC: 1.00351 (Simulation time: 1 hr 0 min 34 sec) 
Heartbeat CPU 0 instructions: 170000000 cycles: 134093272 heartbeat IPC: 1.00369 cumulative IPC: 1.00352 (Simulation time: 1 hr 2 min 9 sec) 
Heartbeat CPU 0 instructions: 180000001 cycles: 144056360 heartbeat IPC: 1.00371 cumulative IPC: 1.00354 (Simulation time: 1 hr 3 min 37 sec) 
Heartbeat CPU 0 instructions: 190000002 cycles: 154023204 heartbeat IPC: 1.00333 cumulative IPC: 1.00352 (Simulation time: 1 hr 5 min 24 sec) 
Heartbeat CPU 0 instructions: 200000003 cycles: 163986964 heartbeat IPC: 1.00364 cumulative IPC: 1.00353 (Simulation time: 1 hr 6 min 56 sec) 
Heartbeat CPU 0 instructions: 210000000 cycles: 173953847 heartbeat IPC: 1.00332 cumulative IPC: 1.00352 (Simulation time: 1 hr 8 min 13 sec) 
Heartbeat CPU 0 instructions: 220000000 cycles: 183920032 heartbeat IPC: 1.00339 cumulative IPC: 1.00351 (Simulation time: 1 hr 9 min 23 sec) 
Heartbeat CPU 0 instructions: 230000002 cycles: 193888313 heartbeat IPC: 1.00318 cumulative IPC: 1.00349 (Simulation time: 1 hr 10 min 22 sec) 
Heartbeat CPU 0 instructions: 240000003 cycles: 203852230 heartbeat IPC: 1.00362 cumulative IPC: 1.0035 (Simulation time: 1 hr 11 min 9 sec) 
Heartbeat CPU 0 instructions: 250000000 cycles: 213820122 heartbeat IPC: 1.00322 cumulative IPC: 1.00348 (Simulation time: 1 hr 11 min 54 sec) 
Finished CPU 0 instructions: 200000003 cycles: 199305430 cumulative IPC: 1.00348 (Simulation time: 1 hr 11 min 54 sec) 

ChampSim completed all CPUs

Region of Interest Statistics

CPU 0 cumulative IPC: 1.00348 instructions: 200000003 cycles: 199305430
ITLB TOTAL     ACCESS:   28070282  HIT:   28070282  MISS:          0  HIT %:        100  MISS %:          0   MPKI: 0
ITLB LOAD TRANSLATION ACCESS:   28070282  HIT:   28070282  MISS:          0  HIT %:        100  MISS %:          0   MPKI: 0
ITLB PREFETCH  REQUESTED:          0  ISSUED:          0  USEFUL:          0  USELESS:          0
ITLB USEFUL LOAD PREFETCHES:          0 PREFETCH ISSUED TO LOWER LEVEL:          0  ACCURACY: -nan
ITLB TIMELY PREFETCHES:          0 LATE PREFETCHES: 0 DROPPED PREFETCHES: 0
ITLB PREFETCHES SAME FILL-ORIGIN LEVEL: 0 DIFFERENT FILL-ORIGIN LEVEL: 0
ITLB AVERAGE MISS LATENCY: -nan cycles
ITLB RQ	ACCESS:   35091428	FORWARD:          0	MERGED:    7021147	TO_CACHE:   28070281

DTLB TOTAL     ACCESS:   32341723  HIT:   32294740  MISS:      46983  HIT %:    99.8547  MISS %:   0.145271   MPKI: 0.234915
DTLB LOAD TRANSLATION ACCESS:   32341723  HIT:   32294740  MISS:      46983  HIT %:    99.8547  MISS %:   0.145271   MPKI: 0.234915
DTLB PREFETCH  REQUESTED:          0  ISSUED:          0  USEFUL:          0  USELESS:          0
DTLB USEFUL LOAD PREFETCHES:          0 PREFETCH ISSUED TO LOWER LEVEL:          0  ACCURACY: -nan
DTLB TIMELY PREFETCHES:          0 LATE PREFETCHES: 0 DROPPED PREFETCHES: 0
DTLB PREFETCHES SAME FILL-ORIGIN LEVEL: 0 DIFFERENT FILL-ORIGIN LEVEL: 0
DTLB AVERAGE MISS LATENCY: 77.1422 cycles
DTLB RQ	ACCESS:   50219316	FORWARD:          0	MERGED:   17877353	TO_CACHE:   32341963

STLB TOTAL     ACCESS:    7232892  HIT:    7205446  MISS:      27446  HIT %:    99.6205  MISS %:   0.379461   MPKI: 0.13723
STLB LOAD TRANSLATION ACCESS:      46983  HIT:      19537  MISS:      27446  HIT %:    41.5831  MISS %:    58.4169   MPKI: 0.13723
STLB TRANSLATION FROM L1D PREFETCHER ACCESS:    7185909  HIT:    7185909  MISS:          0  HIT %:        100  MISS %:          0   MPKI: 0
STLB PREFETCH  REQUESTED:          0  ISSUED:          0  USEFUL:          0  USELESS:          0
STLB USEFUL LOAD PREFETCHES:          0 PREFETCH ISSUED TO LOWER LEVEL:          0  ACCURACY: -nan
STLB TIMELY PREFETCHES:          0 LATE PREFETCHES: 11337 DROPPED PREFETCHES: 4173825
STLB PREFETCHES SAME FILL-ORIGIN LEVEL: 0 DIFFERENT FILL-ORIGIN LEVEL: 0
STLB AVERAGE MISS LATENCY: 118.452 cycles
STLB RQ	ACCESS:   55710071	FORWARD:          0	MERGED:   44190805	TO_CACHE:   11519266

STLB Hit, L1D data hit: 0
STLB Hit, L2C data hit: 0
STLB Hit, LLC data hit: 0
STLB Hit, LLC data miss: 0
STLB STLB hints to L2: 0
L1D TOTAL     ACCESS:   79889675  HIT:   77233625  MISS:    2656050  HIT %:    96.6754  MISS %:    3.32465   MPKI: 13.2802
L1D LOAD      ACCESS:   36093845  HIT:   35673168  MISS:     420677  HIT %:    98.8345  MISS %:    1.16551   MPKI: 2.10338
L1D RFO       ACCESS:   14036734  HIT:   14033668  MISS:       3066  HIT %:    99.9782  MISS %:  0.0218427   MPKI: 0.01533
L1D PREFETCH  ACCESS:   29759096  HIT:   27526789  MISS:    2232307  HIT %:    92.4987  MISS %:    7.50126   MPKI: 11.1615
L1D PREFETCH  REQUESTED:  118434010  ISSUED:  112470398  USEFUL:    2223006  USELESS:       9320
L1D USEFUL LOAD PREFETCHES:    2223006 PREFETCH ISSUED TO LOWER LEVEL:   21271322  ACCURACY: 10.4507
L1D TIMELY PREFETCHES:    2223006 LATE PREFETCHES: 30302 DROPPED PREFETCHES: 6656380
L1D PREFETCHES SAME FILL-ORIGIN LEVEL: 2262609 DIFFERENT FILL-ORIGIN LEVEL: 19008713
L1D AVERAGE MISS LATENCY: 26.0154 cycles
L1D RQ	ACCESS:   70165654	FORWARD:          0	MERGED:   33986782	TO_CACHE:   36178218
L1D WQ	ACCESS:   14041098	FORWARD:        654	MERGED:          0	TO_CACHE:   14041098
L1D PQ	ACCESS:   56807310	FORWARD:          0	MERGED:    1144222	TO_CACHE:   55663088

L1D UNIQUE REGIONS ACCESSED: 0
L1D REGIONS CONFLICTS: 0
L1D Cross Page Prefetch Requests: 10663483
L1D Same Page Prefetch Requests: 60367087
L1D ROI Sum of L1D PQ occupancy: 1190411319
L1D PREFETCHES PUSHED FROM L2C: 0
L1I TOTAL     ACCESS:   35091428  HIT:   35091428  MISS:          0  HIT %:        100  MISS %:          0   MPKI: 0
L1I LOAD      ACCESS:   35091428  HIT:   35091428  MISS:          0  HIT %:        100  MISS %:          0   MPKI: 0
L1I PREFETCH  REQUESTED:          0  ISSUED:          0  USEFUL:          0  USELESS:          0
L1I USEFUL LOAD PREFETCHES:          0 PREFETCH ISSUED TO LOWER LEVEL:          0  ACCURACY: -nan
L1I TIMELY PREFETCHES:          0 LATE PREFETCHES: 0 DROPPED PREFETCHES: 0
L1I PREFETCHES SAME FILL-ORIGIN LEVEL: 0 DIFFERENT FILL-ORIGIN LEVEL: 0
L1I AVERAGE MISS LATENCY: -nan cycles
L1I RQ	ACCESS:   45627219	FORWARD:          0	MERGED:   10535791	TO_CACHE:   35091428

BTB TOTAL     ACCESS:    3509176  HIT:    3509167  MISS:          9  HIT %:    99.9997  MISS %: 0.00025647   MPKI: 4.5e-05
BTB BRANCH_DIRECT_JUMP	ACCESS:        876  HIT:        874  MISS:          2
BTB BRANCH_INDIRECT	ACCESS:          0  HIT:          0  MISS:          0
BTB BRANCH_CONDITIONAL	ACCESS:    3506548  HIT:    3506545  MISS:          3
BTB BRANCH_DIRECT_CALL	ACCESS:        876  HIT:        874  MISS:          2
BTB BRANCH_INDIRECT_CALL	ACCESS:          0  HIT:          0  MISS:          0
BTB BRANCH_RETURN	ACCESS:        876  HIT:        874  MISS:          2
BTB BRANCH_OTHER ACCESS:          0  HIT:          0  MISS:          0

L2C TOTAL     ACCESS:   25166982  HIT:   23340135  MISS:    1826847  HIT %:    92.7411  MISS %:     7.2589   MPKI: 9.13423
L2C LOAD      ACCESS:     390375  HIT:     345518  MISS:      44857  HIT %:    88.5093  MISS %:    11.4907   MPKI: 0.224285
L2C DATA LOAD MPKI: 0.224285
L2C INSTRUCTION LOAD MPKI: 0
L2C RFO       ACCESS:       3066  HIT:       3061  MISS:          5  HIT %:    99.8369  MISS %:   0.163079   MPKI: 2.5e-05
L2C PREFETCH  ACCESS:   18803262  HIT:   17025903  MISS:    1777359  HIT %:    90.5476  MISS %:     9.4524   MPKI: 8.88679
L2C DATA PREFETCH MPKI: 8.88679
L2C INSTRUCTION PREFETCH MPKI: 0
L2C WRITEBACK ACCESS:    1756964  HIT:    1755979  MISS:        985  HIT %:    99.9439  MISS %:  0.0560626   MPKI: 0.004925
L2C LOAD TRANSLATION ACCESS:      27454  HIT:      27396  MISS:         58  HIT %:    99.7887  MISS %:   0.211262   MPKI: 0.00029
L2C TRANSLATION FROM L1D PREFETCHER ACCESS:    4185861  HIT:    4182278  MISS:       3583  HIT %:    99.9144  MISS %:  0.0855977   MPKI: 0.017915
L2C PREFETCH  REQUESTED:          0  ISSUED:          0  USEFUL:     346495  USELESS:    1435599
L2C USEFUL LOAD PREFETCHES:     346495 PREFETCH ISSUED TO LOWER LEVEL:    1783437  ACCURACY: 19.4285
L2C TIMELY PREFETCHES:     346495 LATE PREFETCHES: 6074 DROPPED PREFETCHES: 0
L2C PREFETCHES SAME FILL-ORIGIN LEVEL: 1651405 DIFFERENT FILL-ORIGIN LEVEL: 0
L2C AVERAGE MISS LATENCY: 188.74 cycles
L2C RQ	ACCESS:    4606756	FORWARD:          0	MERGED:          0	TO_CACHE:    4606756
L2C WQ	ACCESS:    1756966	FORWARD:          0	MERGED:          0	TO_CACHE:    1756966
L2C PQ	ACCESS:   21271322	FORWARD:          0	MERGED:        187	TO_CACHE:   21271135

L2C Instructions Evicting Data 0
L2C Translations Evicting Data 3628
L2C Data Evicting Data 1818600
L2C Instructions Evicting Instructions 0
L2C Translations Evicting Instructions 0
L2C Data Evicting Instructions 0
L2C Instructions Evicting Translations 0
L2C Translations Evicting Translations 13
L2C Data Evicting Translations 3621
L2C Dense regions hint from L2: 0
PSCL5 TOTAL     ACCESS:    4212608  HIT:    4212608  MISS:          0  HIT %:        100  MISS %:          0   MPKI: 0
PSCL5 LOAD TRANSLATION ACCESS:      27446  HIT:      27446  MISS:          0  HIT %:        100  MISS %:          0   MPKI: 0
PSCL5 TRANSLATION FROM L1D PREFETCHER ACCESS:    4185162  HIT:    4185162  MISS:          0  HIT %:        100  MISS %:          0   MPKI: 0
PSCL5 PREFETCH  REQUESTED:          0  ISSUED:          0  USEFUL:          0  USELESS:          0
PSCL5 USEFUL LOAD PREFETCHES:          0 PREFETCH ISSUED TO LOWER LEVEL:          0  ACCURACY: -nan
PSCL5 TIMELY PREFETCHES:          0 LATE PREFETCHES: 0 DROPPED PREFETCHES: 0
PSCL5 PREFETCHES SAME FILL-ORIGIN LEVEL: 0 DIFFERENT FILL-ORIGIN LEVEL: 0

PSCL4 TOTAL     ACCESS:    4212608  HIT:    4212608  MISS:          0  HIT %:        100  MISS %:          0   MPKI: 0
PSCL4 LOAD TRANSLATION ACCESS:      27446  HIT:      27446  MISS:          0  HIT %:        100  MISS %:          0   MPKI: 0
PSCL4 TRANSLATION FROM L1D PREFETCHER ACCESS:    4185162  HIT:    4185162  MISS:          0  HIT %:        100  MISS %:          0   MPKI: 0
PSCL4 PREFETCH  REQUESTED:          0  ISSUED:          0  USEFUL:          0  USELESS:          0
PSCL4 USEFUL LOAD PREFETCHES:          0 PREFETCH ISSUED TO LOWER LEVEL:          0  ACCURACY: -nan
PSCL4 TIMELY PREFETCHES:          0 LATE PREFETCHES: 0 DROPPED PREFETCHES: 0
PSCL4 PREFETCHES SAME FILL-ORIGIN LEVEL: 0 DIFFERENT FILL-ORIGIN LEVEL: 0

PSCL3 TOTAL     ACCESS:    4201418  HIT:    4201413  MISS:          5  HIT %:    99.9999  MISS %: 0.000119007   MPKI: 2.5e-05
PSCL3 LOAD TRANSLATION ACCESS:      27383  HIT:      27378  MISS:          5  HIT %:    99.9817  MISS %:  0.0182595   MPKI: 2.5e-05
PSCL3 TRANSLATION FROM L1D PREFETCHER ACCESS:    4174035  HIT:    4174035  MISS:          0  HIT %:        100  MISS %:          0   MPKI: 0
PSCL3 PREFETCH  REQUESTED:          0  ISSUED:          0  USEFUL:          0  USELESS:          0
PSCL3 USEFUL LOAD PREFETCHES:          0 PREFETCH ISSUED TO LOWER LEVEL:          0  ACCURACY: -nan
PSCL3 TIMELY PREFETCHES:          0 LATE PREFETCHES: 0 DROPPED PREFETCHES: 0
PSCL3 PREFETCHES SAME FILL-ORIGIN LEVEL: 0 DIFFERENT FILL-ORIGIN LEVEL: 0

PSCL2 TOTAL     ACCESS:    4193941  HIT:    4193848  MISS:         93  HIT %:    99.9978  MISS %: 0.00221748   MPKI: 0.000465
PSCL2 LOAD TRANSLATION ACCESS:      27446  HIT:      27353  MISS:         93  HIT %:    99.6612  MISS %:   0.338847   MPKI: 0.000465
PSCL2 TRANSLATION FROM L1D PREFETCHER ACCESS:    4166495  HIT:    4166495  MISS:          0  HIT %:        100  MISS %:          0   MPKI: 0
PSCL2 PREFETCH  REQUESTED:          0  ISSUED:          0  USEFUL:          0  USELESS:          0
PSCL2 USEFUL LOAD PREFETCHES:          0 PREFETCH ISSUED TO LOWER LEVEL:          0  ACCURACY: -nan
PSCL2 TIMELY PREFETCHES:          0 LATE PREFETCHES: 0 DROPPED PREFETCHES: 0
PSCL2 PREFETCHES SAME FILL-ORIGIN LEVEL: 0 DIFFERENT FILL-ORIGIN LEVEL: 0

LLC TOTAL     ACCESS:    3579016  HIT:    1791918  MISS:    1787098  HIT %:    50.0673  MISS %:    49.9327   MPKI: 8.93549
LLC LOAD      ACCESS:      38783  HIT:      10558  MISS:      28225  HIT %:    27.2233  MISS %:    72.7767   MPKI: 0.141125
LLC RFO       ACCESS:          5  HIT:          5  MISS:          0  HIT %:        100  MISS %:          0   MPKI: 0
LLC PREFETCH  ACCESS:    1783433  HIT:      54660  MISS:    1728773  HIT %:    3.06488  MISS %:    96.9351   MPKI: 8.64386
LLC WRITEBACK ACCESS:    1753154  HIT:    1726604  MISS:      26550  HIT %:    98.4856  MISS %:    1.51441   MPKI: 0.13275
LLC LOAD TRANSLATION ACCESS:         58  HIT:          2  MISS:         56  HIT %:    3.44828  MISS %:    96.5517   MPKI: 0.00028
LLC TRANSLATION FROM L1D PREFETCHER ACCESS:       3583  HIT:         89  MISS:       3494  HIT %:    2.48395  MISS %:     97.516   MPKI: 0.01747
LLC PREFETCH  REQUESTED:          0  ISSUED:          0  USEFUL:        383  USELESS:    1731778
LLC USEFUL LOAD PREFETCHES:        383 PREFETCH ISSUED TO LOWER LEVEL:    1728775  ACCURACY: 0.0221544
LLC TIMELY PREFETCHES:        383 LATE PREFETCHES: 0 DROPPED PREFETCHES: 0
LLC PREFETCHES SAME FILL-ORIGIN LEVEL: 0 DIFFERENT FILL-ORIGIN LEVEL: 0
LLC AVERAGE MISS LATENCY: 162.487 cycles
LLC RQ	ACCESS:      42429	FORWARD:          0	MERGED:          0	TO_CACHE:      42429
LLC WQ	ACCESS:    1753154	FORWARD:          0	MERGED:          0	TO_CACHE:    1753154
LLC PQ	ACCESS:    1783437	FORWARD:          0	MERGED:          0	TO_CACHE:    1783437

LLC Dense regions hint to LLC: 0

RAW hits: 3460
Loads Generated: 70169124
Loads sent to L1D: 70165654
Stores Generated: 14041094
Stores sent to L1D: 14041098
Major fault: 0 Minor fault: 34498
Allocated PAGES: 34498

DRAM Statistics
 CHANNEL 0
 RQ ROW_BUFFER_HIT:     333650  ROW_BUFFER_MISS:    1426898
 DBUS_CONGESTED:       1737
 WQ ROW_BUFFER_HIT:     674451  ROW_BUFFER_MISS:    1078242  FULL:          0

 AVG_CONGESTED_CYCLE: 5
 All warmup complete: 2
Channel 0 Bank busy for read cycles: 0
Channel 0 Bank busy for write cycles: 0
Channel 0
Rank 0
0banks busy for read cycles: 38866834
0banks busy for write cycles: 64668
1banks busy for read cycles: 56216710
1banks busy for write cycles: 3759125
2banks busy for read cycles: 32716639
2banks busy for write cycles: 2788042
3banks busy for read cycles: 11365591
3banks busy for write cycles: 2447672
4banks busy for read cycles: 5772379
4banks busy for write cycles: 2351581
5banks busy for read cycles: 2586050
5banks busy for write cycles: 2519897
6banks busy for read cycles: 1541345
6banks busy for write cycles: 3230745
7banks busy for read cycles: 1318636
7banks busy for write cycles: 4784921
8banks busy for read cycles: 2562415
8banks busy for write cycles: 24412181

CPU 0 Branch Prediction Accuracy: 99.975% MPKI: 0.00438 Average ROB Occupancy at Mispredict: 52.3082
Branch types
NOT_BRANCH: 196487549 98.2438%
BRANCH_DIRECT_JUMP: 876 0.000438%
BRANCH_INDIRECT: 0 0%
BRANCH_CONDITIONAL: 3509614 1.75481%
BRANCH_DIRECT_CALL: 876 0.000438%
BRANCH_INDIRECT_CALL: 0 0%
BRANCH_RETURN: 876 0.000438%
BRANCH_OTHER: 0 0%

DRAM PAGES: 1048576
Allocated PAGES: 34498
