 (TOTAL 67349)
 
*** ChampSim Multicore Out-of-Order Simulator ***

Warmup Instructions: 50000000
Simulation Instructions: 200000000
Number of CPUs: 1
LLC sets: 2048
LLC ways: 16
Off-chip DRAM Size: 4096 MB Channels: 1 Width: 64-bit Data Rate: 6400 MT/s
argv[0]: ./ChampSim/Berti/bin/tagescl8kb-no-vberti-no-no-no-no-no-lru-lru-lru-srrip-drrip-lru-lru-lru-1core-no
argv[1]: -warmup_instructions
argv[2]: 50000000
argv[3]: -simulation_instructions
argv[4]: 200000000
argv[5]: -traces
argv[6]: traces/spec2k17_ten/649.fotonik3d_s-7084B.champsimtrace.xz
CPU 0 runs traces/spec2k17_ten/649.fotonik3d_s-7084B.champsimtrace.xz
.xz
CPU 0 Tage branch predictor
BTB has LRU replacement policy
ITLB has LRU replacement policy
DTLB has LRU replacement policy
STLB has LRU replacement policy
L1I has LRU replacement policy
History Sets: 8
History Ways: 16
BERTI Size: 16
BERTI Stride Size: 16
L1D has LRU replacement policy
Initialize SRRIP state for L2C
Initialize DRRIP state for LLC
Heartbeat CPU 0 instructions: 10000001 cycles: 2908441 heartbeat IPC: 3.43827 cumulative IPC: 3.43827 (Simulation time: 0 hr 4 min 18 sec) 
Heartbeat CPU 0 instructions: 20000001 cycles: 5816110 heartbeat IPC: 3.43918 cumulative IPC: 3.43872 (Simulation time: 0 hr 11 min 15 sec) 
Heartbeat CPU 0 instructions: 30000001 cycles: 8726163 heartbeat IPC: 3.43636 cumulative IPC: 3.43794 (Simulation time: 0 hr 16 min 10 sec) 
Heartbeat CPU 0 instructions: 40000003 cycles: 11641050 heartbeat IPC: 3.43067 cumulative IPC: 3.43612 (Simulation time: 0 hr 20 min 20 sec) 
Heartbeat CPU 0 instructions: 50000002 cycles: 14563465 heartbeat IPC: 3.42183 cumulative IPC: 3.43325 (Simulation time: 0 hr 25 min 33 sec) 

Warmup complete CPU 0 instructions: 50000002 cycles: 14563465 (Simulation time: 0 hr 25 min 33 sec) 

Heartbeat CPU 0 instructions: 60000002 cycles: 24674006 heartbeat IPC: 0.989067 cumulative IPC: 0.989067 (Simulation time: 0 hr 31 min 47 sec) 
Heartbeat CPU 0 instructions: 70000002 cycles: 34778223 heartbeat IPC: 0.989686 cumulative IPC: 0.989376 (Simulation time: 0 hr 38 min 12 sec) 
Heartbeat CPU 0 instructions: 80000003 cycles: 44882180 heartbeat IPC: 0.989711 cumulative IPC: 0.989488 (Simulation time: 0 hr 42 min 46 sec) 
Heartbeat CPU 0 instructions: 90000001 cycles: 54984598 heartbeat IPC: 0.989862 cumulative IPC: 0.989581 (Simulation time: 0 hr 46 min 45 sec) 
Heartbeat CPU 0 instructions: 100000001 cycles: 65083876 heartbeat IPC: 0.99017 cumulative IPC: 0.989699 (Simulation time: 0 hr 49 min 37 sec) 
Heartbeat CPU 0 instructions: 110000000 cycles: 75187314 heartbeat IPC: 0.989762 cumulative IPC: 0.989709 (Simulation time: 0 hr 52 min 19 sec) 
Heartbeat CPU 0 instructions: 120000000 cycles: 85285438 heartbeat IPC: 0.990283 cumulative IPC: 0.989791 (Simulation time: 0 hr 55 min 9 sec) 
Heartbeat CPU 0 instructions: 130000003 cycles: 95375580 heartbeat IPC: 0.991067 cumulative IPC: 0.989951 (Simulation time: 0 hr 57 min 57 sec) 
Heartbeat CPU 0 instructions: 140000002 cycles: 105477360 heartbeat IPC: 0.989924 cumulative IPC: 0.989948 (Simulation time: 1 hr 0 min 52 sec) 
Heartbeat CPU 0 instructions: 150000001 cycles: 115578820 heartbeat IPC: 0.989956 cumulative IPC: 0.989949 (Simulation time: 1 hr 3 min 14 sec) 
Heartbeat CPU 0 instructions: 160000001 cycles: 125686875 heartbeat IPC: 0.98931 cumulative IPC: 0.98989 (Simulation time: 1 hr 5 min 17 sec) 
Heartbeat CPU 0 instructions: 170000000 cycles: 135792011 heartbeat IPC: 0.989596 cumulative IPC: 0.989866 (Simulation time: 1 hr 6 min 50 sec) 
Heartbeat CPU 0 instructions: 180000001 cycles: 145890720 heartbeat IPC: 0.990226 cumulative IPC: 0.989893 (Simulation time: 1 hr 8 min 7 sec) 
Heartbeat CPU 0 instructions: 190000001 cycles: 155995093 heartbeat IPC: 0.989671 cumulative IPC: 0.989878 (Simulation time: 1 hr 9 min 14 sec) 
Heartbeat CPU 0 instructions: 200000001 cycles: 166097876 heartbeat IPC: 0.989826 cumulative IPC: 0.989874 (Simulation time: 1 hr 10 min 20 sec) 
Heartbeat CPU 0 instructions: 210000003 cycles: 176205105 heartbeat IPC: 0.989391 cumulative IPC: 0.989844 (Simulation time: 1 hr 11 min 25 sec) 
Heartbeat CPU 0 instructions: 220000000 cycles: 186313312 heartbeat IPC: 0.989295 cumulative IPC: 0.989812 (Simulation time: 1 hr 12 min 26 sec) 
Heartbeat CPU 0 instructions: 230000001 cycles: 196415182 heartbeat IPC: 0.989916 cumulative IPC: 0.989817 (Simulation time: 1 hr 13 min 7 sec) 
Heartbeat CPU 0 instructions: 240000002 cycles: 206518931 heartbeat IPC: 0.989732 cumulative IPC: 0.989813 (Simulation time: 1 hr 13 min 46 sec) 
Heartbeat CPU 0 instructions: 250000002 cycles: 216617842 heartbeat IPC: 0.990206 cumulative IPC: 0.989833 (Simulation time: 1 hr 14 min 25 sec) 
Finished CPU 0 instructions: 200000000 cycles: 202054377 cumulative IPC: 0.989833 (Simulation time: 1 hr 14 min 25 sec) 

ChampSim completed all CPUs

Region of Interest Statistics

CPU 0 cumulative IPC: 0.989833 instructions: 200000000 cycles: 202054377
ITLB TOTAL     ACCESS:   24342374  HIT:   24342374  MISS:          0  HIT %:        100  MISS %:          0   MPKI: 0
ITLB LOAD TRANSLATION ACCESS:   24342374  HIT:   24342374  MISS:          0  HIT %:        100  MISS %:          0   MPKI: 0
ITLB PREFETCH  REQUESTED:          0  ISSUED:          0  USEFUL:          0  USELESS:          0
ITLB USEFUL LOAD PREFETCHES:          0 PREFETCH ISSUED TO LOWER LEVEL:          0  ACCURACY: -nan
ITLB TIMELY PREFETCHES:          0 LATE PREFETCHES: 0 DROPPED PREFETCHES: 0
ITLB PREFETCHES SAME FILL-ORIGIN LEVEL: 0 DIFFERENT FILL-ORIGIN LEVEL: 0
ITLB AVERAGE MISS LATENCY: -nan cycles
ITLB RQ	ACCESS:   29752593	FORWARD:          0	MERGED:    5410219	TO_CACHE:   24342374

DTLB TOTAL     ACCESS:   53499475  HIT:   53370651  MISS:     128824  HIT %:    99.7592  MISS %:   0.240795   MPKI: 0.64412
DTLB LOAD TRANSLATION ACCESS:   53499475  HIT:   53370651  MISS:     128824  HIT %:    99.7592  MISS %:   0.240795   MPKI: 0.64412
DTLB PREFETCH  REQUESTED:          0  ISSUED:          0  USEFUL:          0  USELESS:          0
DTLB USEFUL LOAD PREFETCHES:          0 PREFETCH ISSUED TO LOWER LEVEL:          0  ACCURACY: -nan
DTLB TIMELY PREFETCHES:          0 LATE PREFETCHES: 0 DROPPED PREFETCHES: 0
DTLB PREFETCHES SAME FILL-ORIGIN LEVEL: 0 DIFFERENT FILL-ORIGIN LEVEL: 0
DTLB AVERAGE MISS LATENCY: 49.2358 cycles
DTLB RQ	ACCESS:   58693515	FORWARD:          0	MERGED:    5191862	TO_CACHE:   53501653

STLB TOTAL     ACCESS:   13223325  HIT:   13168712  MISS:      54613  HIT %:     99.587  MISS %:   0.413005   MPKI: 0.273065
STLB LOAD TRANSLATION ACCESS:     128824  HIT:      85822  MISS:      43002  HIT %:    66.6196  MISS %:    33.3804   MPKI: 0.21501
STLB TRANSLATION FROM L1D PREFETCHER ACCESS:   13094501  HIT:   13082890  MISS:      11611  HIT %:    99.9113  MISS %:  0.0886708   MPKI: 0.058055
STLB PREFETCH  REQUESTED:          0  ISSUED:          0  USEFUL:      11611  USELESS:          0
STLB USEFUL LOAD PREFETCHES:      11611 PREFETCH ISSUED TO LOWER LEVEL:          0  ACCURACY: inf
STLB TIMELY PREFETCHES:      11611 LATE PREFETCHES: 114 DROPPED PREFETCHES: 1759137
STLB PREFETCHES SAME FILL-ORIGIN LEVEL: 0 DIFFERENT FILL-ORIGIN LEVEL: 0
STLB AVERAGE MISS LATENCY: 105.222 cycles
STLB RQ	ACCESS:   75257722	FORWARD:          0	MERGED:   60274765	TO_CACHE:   14982957

STLB Hit, L1D data hit: 0
STLB Hit, L2C data hit: 0
STLB Hit, LLC data hit: 0
STLB Hit, LLC data miss: 0
STLB STLB hints to L2: 0
L1D TOTAL     ACCESS:  122695115  HIT:  119198833  MISS:    3496282  HIT %:    97.1504  MISS %:    2.84957   MPKI: 17.4814
L1D LOAD      ACCESS:   48842097  HIT:   48780820  MISS:      61277  HIT %:    99.8745  MISS %:   0.125459   MPKI: 0.306385
L1D RFO       ACCESS:    9834440  HIT:    9834440  MISS:          0  HIT %:        100  MISS %:          0   MPKI: 0
L1D PREFETCH  ACCESS:   64018578  HIT:   60583573  MISS:    3435005  HIT %:    94.6344  MISS %:    5.36564   MPKI: 17.175
L1D PREFETCH  REQUESTED:  175085411  ISSUED:  150275467  USEFUL:    3214828  USELESS:     220205
L1D USEFUL LOAD PREFETCHES:    3214828 PREFETCH ISSUED TO LOWER LEVEL:    8512954  ACCURACY: 37.764
L1D TIMELY PREFETCHES:    3214828 LATE PREFETCHES: 4933 DROPPED PREFETCHES: 4377677
L1D PREFETCHES SAME FILL-ORIGIN LEVEL: 3439938 DIFFERENT FILL-ORIGIN LEVEL: 5073016
L1D AVERAGE MISS LATENCY: 180.592 cycles
L1D RQ	ACCESS:   70404590	FORWARD:          0	MERGED:   21515138	TO_CACHE:   48859073
L1D WQ	ACCESS:    9834442	FORWARD:      30379	MERGED:          0	TO_CACHE:    9834442
L1D PQ	ACCESS:   75146569	FORWARD:          0	MERGED:      17671	TO_CACHE:   75128898

L1D UNIQUE REGIONS ACCESSED: 0
L1D REGIONS CONFLICTS: 0
L1D Cross Page Prefetch Requests: 6229327
L1D Same Page Prefetch Requests: 82191013
L1D ROI Sum of L1D PQ occupancy: 1369371065
L1D PREFETCHES PUSHED FROM L2C: 0
L1I TOTAL     ACCESS:   29752592  HIT:   29752592  MISS:          0  HIT %:        100  MISS %:          0   MPKI: 0
L1I LOAD      ACCESS:   29752592  HIT:   29752592  MISS:          0  HIT %:        100  MISS %:          0   MPKI: 0
L1I PREFETCH  REQUESTED:          0  ISSUED:          0  USEFUL:          0  USELESS:          0
L1I USEFUL LOAD PREFETCHES:          0 PREFETCH ISSUED TO LOWER LEVEL:          0  ACCURACY: -nan
L1I TIMELY PREFETCHES:          0 LATE PREFETCHES: 0 DROPPED PREFETCHES: 0
L1I PREFETCHES SAME FILL-ORIGIN LEVEL: 0 DIFFERENT FILL-ORIGIN LEVEL: 0
L1I AVERAGE MISS LATENCY: -nan cycles
L1I RQ	ACCESS:   43306916	FORWARD:          0	MERGED:   13554323	TO_CACHE:   29752593

BTB TOTAL     ACCESS:    1347104  HIT:    1347101  MISS:          3  HIT %:    99.9998  MISS %:  0.0002227   MPKI: 1.5e-05
BTB BRANCH_DIRECT_JUMP	ACCESS:          0  HIT:          0  MISS:          0
BTB BRANCH_INDIRECT	ACCESS:          0  HIT:          0  MISS:          0
BTB BRANCH_CONDITIONAL	ACCESS:    1347104  HIT:    1347101  MISS:          3
BTB BRANCH_DIRECT_CALL	ACCESS:          0  HIT:          0  MISS:          0
BTB BRANCH_INDIRECT_CALL	ACCESS:          0  HIT:          0  MISS:          0
BTB BRANCH_RETURN	ACCESS:          0  HIT:          0  MISS:          0
BTB BRANCH_OTHER ACCESS:          0  HIT:          0  MISS:          0

L2C TOTAL     ACCESS:   10764361  HIT:    7260379  MISS:    3503982  HIT %:    67.4483  MISS %:    32.5517   MPKI: 17.5199
L2C LOAD      ACCESS:      56344  HIT:       4893  MISS:      51451  HIT %:    8.68415  MISS %:    91.3158   MPKI: 0.257255
L2C DATA LOAD MPKI: 0.257255
L2C INSTRUCTION LOAD MPKI: 0
L2C PREFETCH  ACCESS:    7855651  HIT:    4411295  MISS:    3444356  HIT %:    56.1544  MISS %:    43.8456   MPKI: 17.2218
L2C DATA PREFETCH MPKI: 17.2218
L2C INSTRUCTION PREFETCH MPKI: 0
L2C WRITEBACK ACCESS:    1038497  HIT:    1037404  MISS:       1093  HIT %:    99.8948  MISS %:   0.105248   MPKI: 0.005465
L2C LOAD TRANSLATION ACCESS:      43006  HIT:      42864  MISS:        142  HIT %:    99.6698  MISS %:   0.330186   MPKI: 0.00071
L2C TRANSLATION FROM L1D PREFETCHER ACCESS:    1770863  HIT:    1763923  MISS:       6940  HIT %:    99.6081  MISS %:   0.391899   MPKI: 0.0347
L2C PREFETCH  REQUESTED:          0  ISSUED:          0  USEFUL:      11350  USELESS:    3439929
L2C USEFUL LOAD PREFETCHES:      11350 PREFETCH ISSUED TO LOWER LEVEL:    3444655  ACCURACY: 0.329496
L2C TIMELY PREFETCHES:      11350 LATE PREFETCHES: 299 DROPPED PREFETCHES: 0
L2C PREFETCHES SAME FILL-ORIGIN LEVEL: 934311 DIFFERENT FILL-ORIGIN LEVEL: 0
L2C AVERAGE MISS LATENCY: 222.128 cycles
L2C RQ	ACCESS:    1870214	FORWARD:          0	MERGED:          0	TO_CACHE:    1870214
L2C WQ	ACCESS:    1038497	FORWARD:          0	MERGED:          0	TO_CACHE:    1038497
L2C PQ	ACCESS:    8509991	FORWARD:          0	MERGED:          2	TO_CACHE:    8509989

L2C Instructions Evicting Data 0
L2C Translations Evicting Data 7081
L2C Data Evicting Data 3488728
L2C Instructions Evicting Instructions 0
L2C Translations Evicting Instructions 0
L2C Data Evicting Instructions 0
L2C Instructions Evicting Translations 0
L2C Translations Evicting Translations 1
L2C Data Evicting Translations 7079
L2C Dense regions hint from L2: 0
PSCL5 TOTAL     ACCESS:    1813865  HIT:    1813865  MISS:          0  HIT %:        100  MISS %:          0   MPKI: 0
PSCL5 LOAD TRANSLATION ACCESS:      43001  HIT:      43001  MISS:          0  HIT %:        100  MISS %:          0   MPKI: 0
PSCL5 TRANSLATION FROM L1D PREFETCHER ACCESS:    1770864  HIT:    1770864  MISS:          0  HIT %:        100  MISS %:          0   MPKI: 0
PSCL5 PREFETCH  REQUESTED:          0  ISSUED:          0  USEFUL:          0  USELESS:          0
PSCL5 USEFUL LOAD PREFETCHES:          0 PREFETCH ISSUED TO LOWER LEVEL:          0  ACCURACY: -nan
PSCL5 TIMELY PREFETCHES:          0 LATE PREFETCHES: 0 DROPPED PREFETCHES: 0
PSCL5 PREFETCHES SAME FILL-ORIGIN LEVEL: 0 DIFFERENT FILL-ORIGIN LEVEL: 0

PSCL4 TOTAL     ACCESS:    1813865  HIT:    1813865  MISS:          0  HIT %:        100  MISS %:          0   MPKI: 0
PSCL4 LOAD TRANSLATION ACCESS:      43001  HIT:      43001  MISS:          0  HIT %:        100  MISS %:          0   MPKI: 0
PSCL4 TRANSLATION FROM L1D PREFETCHER ACCESS:    1770864  HIT:    1770864  MISS:          0  HIT %:        100  MISS %:          0   MPKI: 0
PSCL4 PREFETCH  REQUESTED:          0  ISSUED:          0  USEFUL:          0  USELESS:          0
PSCL4 USEFUL LOAD PREFETCHES:          0 PREFETCH ISSUED TO LOWER LEVEL:          0  ACCURACY: -nan
PSCL4 TIMELY PREFETCHES:          0 LATE PREFETCHES: 0 DROPPED PREFETCHES: 0
PSCL4 PREFETCHES SAME FILL-ORIGIN LEVEL: 0 DIFFERENT FILL-ORIGIN LEVEL: 0

PSCL3 TOTAL     ACCESS:    1813865  HIT:    1813865  MISS:          0  HIT %:        100  MISS %:          0   MPKI: 0
PSCL3 LOAD TRANSLATION ACCESS:      43001  HIT:      43001  MISS:          0  HIT %:        100  MISS %:          0   MPKI: 0
PSCL3 TRANSLATION FROM L1D PREFETCHER ACCESS:    1770864  HIT:    1770864  MISS:          0  HIT %:        100  MISS %:          0   MPKI: 0
PSCL3 PREFETCH  REQUESTED:          0  ISSUED:          0  USEFUL:          0  USELESS:          0
PSCL3 USEFUL LOAD PREFETCHES:          0 PREFETCH ISSUED TO LOWER LEVEL:          0  ACCURACY: -nan
PSCL3 TIMELY PREFETCHES:          0 LATE PREFETCHES: 0 DROPPED PREFETCHES: 0
PSCL3 PREFETCHES SAME FILL-ORIGIN LEVEL: 0 DIFFERENT FILL-ORIGIN LEVEL: 0

PSCL2 TOTAL     ACCESS:    1807031  HIT:    1806941  MISS:         90  HIT %:     99.995  MISS %: 0.00498055   MPKI: 0.00045
PSCL2 LOAD TRANSLATION ACCESS:      43001  HIT:      42911  MISS:         90  HIT %:    99.7907  MISS %:   0.209297   MPKI: 0.00045
PSCL2 TRANSLATION FROM L1D PREFETCHER ACCESS:    1764030  HIT:    1764030  MISS:          0  HIT %:        100  MISS %:          0   MPKI: 0
PSCL2 PREFETCH  REQUESTED:          0  ISSUED:          0  USEFUL:          0  USELESS:          0
PSCL2 USEFUL LOAD PREFETCHES:          0 PREFETCH ISSUED TO LOWER LEVEL:          0  ACCURACY: -nan
PSCL2 TIMELY PREFETCHES:          0 LATE PREFETCHES: 0 DROPPED PREFETCHES: 0
PSCL2 PREFETCHES SAME FILL-ORIGIN LEVEL: 0 DIFFERENT FILL-ORIGIN LEVEL: 0

LLC TOTAL     ACCESS:    4541678  HIT:    1036550  MISS:    3505128  HIT %:    22.8231  MISS %:    77.1769   MPKI: 17.5256
LLC LOAD      ACCESS:      51152  HIT:        146  MISS:      51006  HIT %:   0.285424  MISS %:    99.7146   MPKI: 0.25503
LLC PREFETCH  ACCESS:    3444655  HIT:      13370  MISS:    3431285  HIT %:   0.388138  MISS %:    99.6119   MPKI: 17.1564
LLC WRITEBACK ACCESS:    1038789  HIT:    1022989  MISS:      15800  HIT %:     98.479  MISS %:      1.521   MPKI: 0.079
LLC LOAD TRANSLATION ACCESS:        142  HIT:          7  MISS:        135  HIT %:    4.92958  MISS %:    95.0704   MPKI: 0.000675
LLC TRANSLATION FROM L1D PREFETCHER ACCESS:       6940  HIT:         38  MISS:       6902  HIT %:    0.54755  MISS %:    99.4524   MPKI: 0.03451
LLC PREFETCH  REQUESTED:          0  ISSUED:          0  USEFUL:         38  USELESS:    3438034
LLC USEFUL LOAD PREFETCHES:         38 PREFETCH ISSUED TO LOWER LEVEL:    3431285  ACCURACY: 0.00110746
LLC TIMELY PREFETCHES:         38 LATE PREFETCHES: 0 DROPPED PREFETCHES: 0
LLC PREFETCHES SAME FILL-ORIGIN LEVEL: 0 DIFFERENT FILL-ORIGIN LEVEL: 0
LLC AVERAGE MISS LATENCY: 191.135 cycles
LLC RQ	ACCESS:      58234	FORWARD:          0	MERGED:          0	TO_CACHE:      58234
LLC WQ	ACCESS:    1038789	FORWARD:          0	MERGED:          0	TO_CACHE:    1038789
LLC PQ	ACCESS:    3444655	FORWARD:          0	MERGED:          0	TO_CACHE:    3444655

LLC Dense regions hint to LLC: 0

RAW hits: 341206
Loads Generated: 70745795
Loads sent to L1D: 70404590
Stores Generated: 9834441
Stores sent to L1D: 9834442
Major fault: 0 Minor fault: 54759
Allocated PAGES: 54759

DRAM Statistics
 CHANNEL 0
 RQ ROW_BUFFER_HIT:     862015  ROW_BUFFER_MISS:    2627313
 DBUS_CONGESTED:       1766
 WQ ROW_BUFFER_HIT:     313620  ROW_BUFFER_MISS:     725357  FULL:          0

 AVG_CONGESTED_CYCLE: 5
 All warmup complete: 2
Channel 0 Bank busy for read cycles: 0
Channel 0 Bank busy for write cycles: 0
Channel 0
Rank 0
0banks busy for read cycles: 432157
0banks busy for write cycles: 231
1banks busy for read cycles: 44484504
1banks busy for write cycles: 364193
2banks busy for read cycles: 47997020
2banks busy for write cycles: 378887
3banks busy for read cycles: 31959304
3banks busy for write cycles: 402384
4banks busy for read cycles: 17322491
4banks busy for write cycles: 436816
5banks busy for read cycles: 8870508
5banks busy for write cycles: 505126
6banks busy for read cycles: 5633683
6banks busy for write cycles: 730336
7banks busy for read cycles: 4111996
7banks busy for write cycles: 2869846
8banks busy for read cycles: 3410549
8banks busy for write cycles: 32144347

CPU 0 Branch Prediction Accuracy: 100% MPKI: 0 Average ROB Occupancy at Mispredict: -nan
Branch types
NOT_BRANCH: 198618928 99.3095%
BRANCH_DIRECT_JUMP: 0 0%
BRANCH_INDIRECT: 0 0%
BRANCH_CONDITIONAL: 1380806 0.690403%
BRANCH_DIRECT_CALL: 0 0%
BRANCH_INDIRECT_CALL: 0 0%
BRANCH_RETURN: 0 0%
BRANCH_OTHER: 0 0%

DRAM PAGES: 1048576
Allocated PAGES: 54759
