 (TOTAL 67349)
 
*** ChampSim Multicore Out-of-Order Simulator ***

Warmup Instructions: 50000000
Simulation Instructions: 200000000
Number of CPUs: 1
LLC sets: 2048
LLC ways: 16
Off-chip DRAM Size: 4096 MB Channels: 1 Width: 64-bit Data Rate: 6400 MT/s
argv[0]: ./ChampSim/Berti/bin/tagescl8kb-no-vberti-no-no-no-no-no-lru-lru-lru-srrip-drrip-lru-lru-lru-1core-no
argv[1]: -warmup_instructions
argv[2]: 50000000
argv[3]: -simulation_instructions
argv[4]: 200000000
argv[5]: -traces
argv[6]: traces/spec2k17_ten/649.fotonik3d_s-8225B.champsimtrace.xz
CPU 0 runs traces/spec2k17_ten/649.fotonik3d_s-8225B.champsimtrace.xz
.xz
CPU 0 Tage branch predictor
BTB has LRU replacement policy
ITLB has LRU replacement policy
DTLB has LRU replacement policy
STLB has LRU replacement policy
L1I has LRU replacement policy
History Sets: 8
History Ways: 16
BERTI Size: 16
BERTI Stride Size: 16
L1D has LRU replacement policy
Initialize SRRIP state for L2C
Initialize DRRIP state for LLC
Heartbeat CPU 0 instructions: 10000001 cycles: 2903949 heartbeat IPC: 3.44359 cumulative IPC: 3.44359 (Simulation time: 0 hr 3 min 48 sec) 
Heartbeat CPU 0 instructions: 20000001 cycles: 5807824 heartbeat IPC: 3.44367 cumulative IPC: 3.44363 (Simulation time: 0 hr 9 min 10 sec) 
Heartbeat CPU 0 instructions: 30000000 cycles: 8711649 heartbeat IPC: 3.44373 cumulative IPC: 3.44367 (Simulation time: 0 hr 11 min 58 sec) 
Heartbeat CPU 0 instructions: 40000002 cycles: 11615515 heartbeat IPC: 3.44369 cumulative IPC: 3.44367 (Simulation time: 0 hr 17 min 0 sec) 
Heartbeat CPU 0 instructions: 50000001 cycles: 14519328 heartbeat IPC: 3.44375 cumulative IPC: 3.44369 (Simulation time: 0 hr 21 min 53 sec) 

Warmup complete CPU 0 instructions: 50000001 cycles: 14519328 (Simulation time: 0 hr 21 min 53 sec) 

Heartbeat CPU 0 instructions: 60000000 cycles: 24483541 heartbeat IPC: 1.00359 cumulative IPC: 1.00359 (Simulation time: 0 hr 26 min 59 sec) 
Heartbeat CPU 0 instructions: 70000001 cycles: 34449932 heartbeat IPC: 1.00337 cumulative IPC: 1.00348 (Simulation time: 0 hr 32 min 5 sec) 
Heartbeat CPU 0 instructions: 80000002 cycles: 44415612 heartbeat IPC: 1.00344 cumulative IPC: 1.00347 (Simulation time: 0 hr 35 min 5 sec) 
Heartbeat CPU 0 instructions: 90000003 cycles: 54380829 heartbeat IPC: 1.00349 cumulative IPC: 1.00347 (Simulation time: 0 hr 38 min 31 sec) 
Heartbeat CPU 0 instructions: 100000000 cycles: 64346027 heartbeat IPC: 1.00349 cumulative IPC: 1.00348 (Simulation time: 0 hr 42 min 28 sec) 
Heartbeat CPU 0 instructions: 110000000 cycles: 74310868 heartbeat IPC: 1.00353 cumulative IPC: 1.00349 (Simulation time: 0 hr 45 min 46 sec) 
Heartbeat CPU 0 instructions: 120000002 cycles: 84276848 heartbeat IPC: 1.00341 cumulative IPC: 1.00348 (Simulation time: 0 hr 48 min 21 sec) 
Heartbeat CPU 0 instructions: 130000003 cycles: 94242178 heartbeat IPC: 1.00348 cumulative IPC: 1.00348 (Simulation time: 0 hr 50 min 45 sec) 
Heartbeat CPU 0 instructions: 140000002 cycles: 104207482 heartbeat IPC: 1.00348 cumulative IPC: 1.00348 (Simulation time: 0 hr 53 min 16 sec) 
Heartbeat CPU 0 instructions: 150000003 cycles: 114173211 heartbeat IPC: 1.00344 cumulative IPC: 1.00347 (Simulation time: 0 hr 56 min 0 sec) 
Heartbeat CPU 0 instructions: 160000000 cycles: 124137708 heartbeat IPC: 1.00356 cumulative IPC: 1.00348 (Simulation time: 0 hr 58 min 9 sec) 
Heartbeat CPU 0 instructions: 170000001 cycles: 134103693 heartbeat IPC: 1.00341 cumulative IPC: 1.00348 (Simulation time: 0 hr 59 min 50 sec) 
Heartbeat CPU 0 instructions: 180000000 cycles: 144068799 heartbeat IPC: 1.0035 cumulative IPC: 1.00348 (Simulation time: 1 hr 2 min 5 sec) 
Heartbeat CPU 0 instructions: 190000001 cycles: 154033356 heartbeat IPC: 1.00356 cumulative IPC: 1.00348 (Simulation time: 1 hr 3 min 20 sec) 
Heartbeat CPU 0 instructions: 200000003 cycles: 163998745 heartbeat IPC: 1.00347 cumulative IPC: 1.00348 (Simulation time: 1 hr 4 min 33 sec) 
Heartbeat CPU 0 instructions: 210000001 cycles: 173964250 heartbeat IPC: 1.00346 cumulative IPC: 1.00348 (Simulation time: 1 hr 5 min 42 sec) 
Heartbeat CPU 0 instructions: 220000000 cycles: 183929143 heartbeat IPC: 1.00352 cumulative IPC: 1.00348 (Simulation time: 1 hr 6 min 42 sec) 
Heartbeat CPU 0 instructions: 230000000 cycles: 193891935 heartbeat IPC: 1.00373 cumulative IPC: 1.0035 (Simulation time: 1 hr 7 min 39 sec) 
Heartbeat CPU 0 instructions: 240000003 cycles: 203858937 heartbeat IPC: 1.00331 cumulative IPC: 1.00349 (Simulation time: 1 hr 8 min 26 sec) 
Heartbeat CPU 0 instructions: 250000000 cycles: 213822350 heartbeat IPC: 1.00367 cumulative IPC: 1.0035 (Simulation time: 1 hr 9 min 8 sec) 
Finished CPU 0 instructions: 200000003 cycles: 199303023 cumulative IPC: 1.0035 (Simulation time: 1 hr 9 min 8 sec) 

ChampSim completed all CPUs

Region of Interest Statistics

CPU 0 cumulative IPC: 1.0035 instructions: 200000003 cycles: 199303023
ITLB TOTAL     ACCESS:   28070183  HIT:   28070183  MISS:          0  HIT %:        100  MISS %:          0   MPKI: 0
ITLB LOAD TRANSLATION ACCESS:   28070183  HIT:   28070183  MISS:          0  HIT %:        100  MISS %:          0   MPKI: 0
ITLB PREFETCH  REQUESTED:          0  ISSUED:          0  USEFUL:          0  USELESS:          0
ITLB USEFUL LOAD PREFETCHES:          0 PREFETCH ISSUED TO LOWER LEVEL:          0  ACCURACY: -nan
ITLB TIMELY PREFETCHES:          0 LATE PREFETCHES: 0 DROPPED PREFETCHES: 0
ITLB PREFETCHES SAME FILL-ORIGIN LEVEL: 0 DIFFERENT FILL-ORIGIN LEVEL: 0
ITLB AVERAGE MISS LATENCY: -nan cycles
ITLB RQ	ACCESS:   35091253	FORWARD:          0	MERGED:    7021070	TO_CACHE:   28070183

DTLB TOTAL     ACCESS:   32336405  HIT:   32289535  MISS:      46870  HIT %:    99.8551  MISS %:   0.144945   MPKI: 0.23435
DTLB LOAD TRANSLATION ACCESS:   32336405  HIT:   32289535  MISS:      46870  HIT %:    99.8551  MISS %:   0.144945   MPKI: 0.23435
DTLB PREFETCH  REQUESTED:          0  ISSUED:          0  USEFUL:          0  USELESS:          0
DTLB USEFUL LOAD PREFETCHES:          0 PREFETCH ISSUED TO LOWER LEVEL:          0  ACCURACY: -nan
DTLB TIMELY PREFETCHES:          0 LATE PREFETCHES: 0 DROPPED PREFETCHES: 0
DTLB PREFETCHES SAME FILL-ORIGIN LEVEL: 0 DIFFERENT FILL-ORIGIN LEVEL: 0
DTLB AVERAGE MISS LATENCY: 77.554 cycles
DTLB RQ	ACCESS:   50213578	FORWARD:          0	MERGED:   17877075	TO_CACHE:   32336503

STLB TOTAL     ACCESS:    7196568  HIT:    7169118  MISS:      27450  HIT %:    99.6186  MISS %:   0.381432   MPKI: 0.13725
STLB LOAD TRANSLATION ACCESS:      46870  HIT:      19420  MISS:      27450  HIT %:    41.4338  MISS %:    58.5662   MPKI: 0.13725
STLB TRANSLATION FROM L1D PREFETCHER ACCESS:    7149698  HIT:    7149698  MISS:          0  HIT %:        100  MISS %:          0   MPKI: 0
STLB PREFETCH  REQUESTED:          0  ISSUED:          0  USEFUL:          0  USELESS:          0
STLB USEFUL LOAD PREFETCHES:          0 PREFETCH ISSUED TO LOWER LEVEL:          0  ACCURACY: -nan
STLB TIMELY PREFETCHES:          0 LATE PREFETCHES: 12148 DROPPED PREFETCHES: 4465126
STLB PREFETCHES SAME FILL-ORIGIN LEVEL: 0 DIFFERENT FILL-ORIGIN LEVEL: 0
STLB AVERAGE MISS LATENCY: 119.09 cycles
STLB RQ	ACCESS:   55634733	FORWARD:          0	MERGED:   43850087	TO_CACHE:   11784646

STLB Hit, L1D data hit: 0
STLB Hit, L2C data hit: 0
STLB Hit, LLC data hit: 0
STLB Hit, LLC data miss: 0
STLB STLB hints to L2: 0
L1D TOTAL     ACCESS:   79429702  HIT:   76773251  MISS:    2656451  HIT %:    96.6556  MISS %:    3.34441   MPKI: 13.2823
L1D LOAD      ACCESS:   36089165  HIT:   35653232  MISS:     435933  HIT %:    98.7921  MISS %:    1.20793   MPKI: 2.17966
L1D RFO       ACCESS:   14038230  HIT:   14035597  MISS:       2633  HIT %:    99.9812  MISS %:  0.0187559   MPKI: 0.013165
L1D PREFETCH  ACCESS:   29302307  HIT:   27084422  MISS:    2217885  HIT %:     92.431  MISS %:    7.56898   MPKI: 11.0894
L1D PREFETCH  REQUESTED:  118894200  ISSUED:  112429132  USEFUL:    2208178  USELESS:       9700
L1D USEFUL LOAD PREFETCHES:    2208178 PREFETCH ISSUED TO LOWER LEVEL:   21326611  ACCURACY: 10.3541
L1D TIMELY PREFETCHES:    2208178 LATE PREFETCHES: 30810 DROPPED PREFETCHES: 6955019
L1D PREFETCHES SAME FILL-ORIGIN LEVEL: 2248696 DIFFERENT FILL-ORIGIN LEVEL: 19077915
L1D AVERAGE MISS LATENCY: 27.2202 cycles
L1D RQ	ACCESS:   70165658	FORWARD:          0	MERGED:   33992828	TO_CACHE:   36172482
L1D WQ	ACCESS:   14041096	FORWARD:        348	MERGED:          0	TO_CACHE:   14041096
L1D PQ	ACCESS:   56841269	FORWARD:          0	MERGED:    1253406	TO_CACHE:   55587863

L1D UNIQUE REGIONS ACCESSED: 0
L1D REGIONS CONFLICTS: 0
L1D Cross Page Prefetch Requests: 10323130
L1D Same Page Prefetch Requests: 60363990
L1D ROI Sum of L1D PQ occupancy: 1217875395
L1D PREFETCHES PUSHED FROM L2C: 0
L1I TOTAL     ACCESS:   35091251  HIT:   35091251  MISS:          0  HIT %:        100  MISS %:          0   MPKI: 0
L1I LOAD      ACCESS:   35091251  HIT:   35091251  MISS:          0  HIT %:        100  MISS %:          0   MPKI: 0
L1I PREFETCH  REQUESTED:          0  ISSUED:          0  USEFUL:          0  USELESS:          0
L1I USEFUL LOAD PREFETCHES:          0 PREFETCH ISSUED TO LOWER LEVEL:          0  ACCURACY: -nan
L1I TIMELY PREFETCHES:          0 LATE PREFETCHES: 0 DROPPED PREFETCHES: 0
L1I PREFETCHES SAME FILL-ORIGIN LEVEL: 0 DIFFERENT FILL-ORIGIN LEVEL: 0
L1I AVERAGE MISS LATENCY: -nan cycles
L1I RQ	ACCESS:   45627453	FORWARD:          0	MERGED:   10536200	TO_CACHE:   35091253

BTB TOTAL     ACCESS:    3509173  HIT:    3509164  MISS:          9  HIT %:    99.9997  MISS %: 0.000256471   MPKI: 4.5e-05
BTB BRANCH_DIRECT_JUMP	ACCESS:        876  HIT:        874  MISS:          2
BTB BRANCH_INDIRECT	ACCESS:          0  HIT:          0  MISS:          0
BTB BRANCH_CONDITIONAL	ACCESS:    3506545  HIT:    3506542  MISS:          3
BTB BRANCH_DIRECT_CALL	ACCESS:        876  HIT:        874  MISS:          2
BTB BRANCH_INDIRECT_CALL	ACCESS:          0  HIT:          0  MISS:          0
BTB BRANCH_RETURN	ACCESS:        876  HIT:        874  MISS:          2
BTB BRANCH_OTHER ACCESS:          0  HIT:          0  MISS:          0

L2C TOTAL     ACCESS:   25541528  HIT:   23609848  MISS:    1931680  HIT %:    92.4371  MISS %:     7.5629   MPKI: 9.6584
L2C LOAD      ACCESS:     405123  HIT:     361820  MISS:      43303  HIT %:    89.3111  MISS %:    10.6889   MPKI: 0.216515
L2C DATA LOAD MPKI: 0.216515
L2C INSTRUCTION LOAD MPKI: 0
L2C RFO       ACCESS:       2633  HIT:       2600  MISS:         33  HIT %:    98.7467  MISS %:    1.25332   MPKI: 0.000165
L2C PREFETCH  ACCESS:   18870036  HIT:   16986592  MISS:    1883444  HIT %:    90.0189  MISS %:    9.98114   MPKI: 9.41722
L2C DATA PREFETCH MPKI: 9.41722
L2C INSTRUCTION PREFETCH MPKI: 0
L2C WRITEBACK ACCESS:    1757442  HIT:    1756199  MISS:       1243  HIT %:    99.9293  MISS %:  0.0707278   MPKI: 0.006215
L2C LOAD TRANSLATION ACCESS:      27464  HIT:      27403  MISS:         61  HIT %:    99.7779  MISS %:   0.222109   MPKI: 0.000305
L2C TRANSLATION FROM L1D PREFETCHER ACCESS:    4478830  HIT:    4475234  MISS:       3596  HIT %:    99.9197  MISS %:  0.0802888   MPKI: 0.01798
L2C PREFETCH  REQUESTED:          0  ISSUED:          0  USEFUL:     360975  USELESS:    1527232
L2C USEFUL LOAD PREFETCHES:     360975 PREFETCH ISSUED TO LOWER LEVEL:    1889400  ACCURACY: 19.1053
L2C TIMELY PREFETCHES:     360975 LATE PREFETCHES: 5954 DROPPED PREFETCHES: 0
L2C PREFETCHES SAME FILL-ORIGIN LEVEL: 1656955 DIFFERENT FILL-ORIGIN LEVEL: 0
L2C AVERAGE MISS LATENCY: 180.375 cycles
L2C RQ	ACCESS:    4914050	FORWARD:          0	MERGED:          0	TO_CACHE:    4914050
L2C WQ	ACCESS:    1757442	FORWARD:          0	MERGED:          0	TO_CACHE:    1757442
L2C PQ	ACCESS:   21326611	FORWARD:          0	MERGED:        188	TO_CACHE:   21326423

L2C Instructions Evicting Data 0
L2C Translations Evicting Data 3657
L2C Data Evicting Data 1923125
L2C Instructions Evicting Instructions 0
L2C Translations Evicting Instructions 0
L2C Data Evicting Instructions 0
L2C Instructions Evicting Translations 0
L2C Translations Evicting Translations 0
L2C Data Evicting Translations 3655
L2C Dense regions hint from L2: 0
PSCL5 TOTAL     ACCESS:    4504724  HIT:    4504724  MISS:          0  HIT %:        100  MISS %:          0   MPKI: 0
PSCL5 LOAD TRANSLATION ACCESS:      27450  HIT:      27450  MISS:          0  HIT %:        100  MISS %:          0   MPKI: 0
PSCL5 TRANSLATION FROM L1D PREFETCHER ACCESS:    4477274  HIT:    4477274  MISS:          0  HIT %:        100  MISS %:          0   MPKI: 0
PSCL5 PREFETCH  REQUESTED:          0  ISSUED:          0  USEFUL:          0  USELESS:          0
PSCL5 USEFUL LOAD PREFETCHES:          0 PREFETCH ISSUED TO LOWER LEVEL:          0  ACCURACY: -nan
PSCL5 TIMELY PREFETCHES:          0 LATE PREFETCHES: 0 DROPPED PREFETCHES: 0
PSCL5 PREFETCHES SAME FILL-ORIGIN LEVEL: 0 DIFFERENT FILL-ORIGIN LEVEL: 0

PSCL4 TOTAL     ACCESS:    4504724  HIT:    4504724  MISS:          0  HIT %:        100  MISS %:          0   MPKI: 0
PSCL4 LOAD TRANSLATION ACCESS:      27450  HIT:      27450  MISS:          0  HIT %:        100  MISS %:          0   MPKI: 0
PSCL4 TRANSLATION FROM L1D PREFETCHER ACCESS:    4477274  HIT:    4477274  MISS:          0  HIT %:        100  MISS %:          0   MPKI: 0
PSCL4 PREFETCH  REQUESTED:          0  ISSUED:          0  USEFUL:          0  USELESS:          0
PSCL4 USEFUL LOAD PREFETCHES:          0 PREFETCH ISSUED TO LOWER LEVEL:          0  ACCURACY: -nan
PSCL4 TIMELY PREFETCHES:          0 LATE PREFETCHES: 0 DROPPED PREFETCHES: 0
PSCL4 PREFETCHES SAME FILL-ORIGIN LEVEL: 0 DIFFERENT FILL-ORIGIN LEVEL: 0

PSCL3 TOTAL     ACCESS:    4424635  HIT:    4424625  MISS:         10  HIT %:    99.9998  MISS %: 0.000226007   MPKI: 5e-05
PSCL3 LOAD TRANSLATION ACCESS:      26934  HIT:      26924  MISS:         10  HIT %:    99.9629  MISS %:  0.0371278   MPKI: 5e-05
PSCL3 TRANSLATION FROM L1D PREFETCHER ACCESS:    4397701  HIT:    4397701  MISS:          0  HIT %:        100  MISS %:          0   MPKI: 0
PSCL3 PREFETCH  REQUESTED:          0  ISSUED:          0  USEFUL:          0  USELESS:          0
PSCL3 USEFUL LOAD PREFETCHES:          0 PREFETCH ISSUED TO LOWER LEVEL:          0  ACCURACY: -nan
PSCL3 TIMELY PREFETCHES:          0 LATE PREFETCHES: 0 DROPPED PREFETCHES: 0
PSCL3 PREFETCHES SAME FILL-ORIGIN LEVEL: 0 DIFFERENT FILL-ORIGIN LEVEL: 0

PSCL2 TOTAL     ACCESS:    4480018  HIT:    4479925  MISS:         93  HIT %:    99.9979  MISS %: 0.00207588   MPKI: 0.000465
PSCL2 LOAD TRANSLATION ACCESS:      27450  HIT:      27357  MISS:         93  HIT %:    99.6612  MISS %:   0.338798   MPKI: 0.000465
PSCL2 TRANSLATION FROM L1D PREFETCHER ACCESS:    4452568  HIT:    4452568  MISS:          0  HIT %:        100  MISS %:          0   MPKI: 0
PSCL2 PREFETCH  REQUESTED:          0  ISSUED:          0  USEFUL:          0  USELESS:          0
PSCL2 USEFUL LOAD PREFETCHES:          0 PREFETCH ISSUED TO LOWER LEVEL:          0  ACCURACY: -nan
PSCL2 TIMELY PREFETCHES:          0 LATE PREFETCHES: 0 DROPPED PREFETCHES: 0
PSCL2 PREFETCHES SAME FILL-ORIGIN LEVEL: 0 DIFFERENT FILL-ORIGIN LEVEL: 0

LLC TOTAL     ACCESS:    3683741  HIT:    1895113  MISS:    1788628  HIT %:    51.4453  MISS %:    48.5547   MPKI: 8.94314
LLC LOAD      ACCESS:      37349  HIT:       9099  MISS:      28250  HIT %:    24.3621  MISS %:    75.6379   MPKI: 0.14125
LLC RFO       ACCESS:         33  HIT:         33  MISS:          0  HIT %:        100  MISS %:          0   MPKI: 0
LLC PREFETCH  ACCESS:    1889398  HIT:     159125  MISS:    1730273  HIT %:    8.42199  MISS %:     91.578   MPKI: 8.65136
LLC WRITEBACK ACCESS:    1753304  HIT:    1726757  MISS:      26547  HIT %:    98.4859  MISS %:    1.51411   MPKI: 0.132735
LLC LOAD TRANSLATION ACCESS:         61  HIT:          3  MISS:         58  HIT %:    4.91803  MISS %:     95.082   MPKI: 0.00029
LLC TRANSLATION FROM L1D PREFETCHER ACCESS:       3596  HIT:         96  MISS:       3500  HIT %:    2.66963  MISS %:    97.3304   MPKI: 0.0175
LLC PREFETCH  REQUESTED:          0  ISSUED:          0  USEFUL:        385  USELESS:    1733288
LLC USEFUL LOAD PREFETCHES:        385 PREFETCH ISSUED TO LOWER LEVEL:    1730275  ACCURACY: 0.0222508
LLC TIMELY PREFETCHES:        385 LATE PREFETCHES: 0 DROPPED PREFETCHES: 0
LLC PREFETCHES SAME FILL-ORIGIN LEVEL: 0 DIFFERENT FILL-ORIGIN LEVEL: 0
LLC AVERAGE MISS LATENCY: 162.591 cycles
LLC RQ	ACCESS:      41039	FORWARD:          0	MERGED:          0	TO_CACHE:      41039
LLC WQ	ACCESS:    1753304	FORWARD:          0	MERGED:          0	TO_CACHE:    1753304
LLC PQ	ACCESS:    1889400	FORWARD:          0	MERGED:          0	TO_CACHE:    1889400

LLC Dense regions hint to LLC: 0

RAW hits: 3439
Loads Generated: 70169098
Loads sent to L1D: 70165658
Stores Generated: 14041090
Stores sent to L1D: 14041096
Major fault: 0 Minor fault: 34487
Allocated PAGES: 34487

DRAM Statistics
 CHANNEL 0
 RQ ROW_BUFFER_HIT:     331547  ROW_BUFFER_MISS:    1430535
 DBUS_CONGESTED:       1838
 WQ ROW_BUFFER_HIT:     671511  ROW_BUFFER_MISS:    1081101  FULL:          0

 AVG_CONGESTED_CYCLE: 5
 All warmup complete: 2
Channel 0 Bank busy for read cycles: 0
Channel 0 Bank busy for write cycles: 0
Channel 0
Rank 0
0banks busy for read cycles: 38677814
0banks busy for write cycles: 64214
1banks busy for read cycles: 56109217
1banks busy for write cycles: 3688372
2banks busy for read cycles: 32744543
2banks busy for write cycles: 2758609
3banks busy for read cycles: 11501153
3banks busy for write cycles: 2480984
4banks busy for read cycles: 5805402
4banks busy for write cycles: 2342236
5banks busy for read cycles: 2571316
5banks busy for write cycles: 2547681
6banks busy for read cycles: 1545159
6banks busy for write cycles: 3254814
7banks busy for read cycles: 1322776
7banks busy for write cycles: 4818478
8banks busy for read cycles: 2559647
8banks busy for write cycles: 24510609

CPU 0 Branch Prediction Accuracy: 99.975% MPKI: 0.00438 Average ROB Occupancy at Mispredict: 50.8904
Branch types
NOT_BRANCH: 196487440 98.2437%
BRANCH_DIRECT_JUMP: 876 0.000438%
BRANCH_INDIRECT: 0 0%
BRANCH_CONDITIONAL: 3509611 1.75481%
BRANCH_DIRECT_CALL: 876 0.000438%
BRANCH_INDIRECT_CALL: 0 0%
BRANCH_RETURN: 876 0.000438%
BRANCH_OTHER: 0 0%

DRAM PAGES: 1048576
Allocated PAGES: 34487
