526208 bits of metadata so far, 405638 left out of 526336 total budget
table size is 13521 bits, 2253 entries for 5 bit, 1931 entries for 6 bit
526208 total bits (64.23KB)

*** ChampSim Multicore Out-of-Order Simulator ***

Warmup Instructions: 50000000
Simulation Instructions: 200000000
Number of CPUs: 1
LLC sets: 2048
LLC ways: 16
Off-chip DRAM Size: 4096 MB Channels: 1 Width: 64-bit Data Rate: 6400 MT/s
argv[0]: ./ChampSim/Berti/bin/multiperspective_perceptron-no-vberti-no-no-no-no-no-lru-lru-lru-srrip-drrip-lru-lru-lru-1core-no
argv[1]: -warmup_instructions
argv[2]: 50000000
argv[3]: -simulation_instructions
argv[4]: 200000000
argv[5]: -traces
argv[6]: traces/spec2k17_ten/638.imagick_s-10316B.champsimtrace.xz
CPU 0 runs traces/spec2k17_ten/638.imagick_s-10316B.champsimtrace.xz
.xz
CPU 0 Multiperspective perceptron branch predictor
BTB has LRU replacement policy
ITLB has LRU replacement policy
DTLB has LRU replacement policy
STLB has LRU replacement policy
L1I has LRU replacement policy
History Sets: 8
History Ways: 16
BERTI Size: 16
BERTI Stride Size: 16
L1D has LRU replacement policy
Initialize SRRIP state for L2C
Initialize DRRIP state for LLC
Heartbeat CPU 0 instructions: 10000001 cycles: 2566509 heartbeat IPC: 3.89634 cumulative IPC: 3.89634 (Simulation time: 0 hr 5 min 42 sec) 
Heartbeat CPU 0 instructions: 20000002 cycles: 5132679 heartbeat IPC: 3.89686 cumulative IPC: 3.8966 (Simulation time: 0 hr 11 min 6 sec) 
Heartbeat CPU 0 instructions: 30000000 cycles: 7698872 heartbeat IPC: 3.89682 cumulative IPC: 3.89667 (Simulation time: 0 hr 12 min 45 sec) 
Heartbeat CPU 0 instructions: 40000001 cycles: 10265117 heartbeat IPC: 3.89674 cumulative IPC: 3.89669 (Simulation time: 0 hr 15 min 48 sec) 
Heartbeat CPU 0 instructions: 50000002 cycles: 12831371 heartbeat IPC: 3.89673 cumulative IPC: 3.8967 (Simulation time: 0 hr 19 min 31 sec) 

Warmup complete CPU 0 instructions: 50000002 cycles: 12831371 (Simulation time: 0 hr 19 min 31 sec) 

Heartbeat CPU 0 instructions: 60000000 cycles: 22122038 heartbeat IPC: 1.07635 cumulative IPC: 1.07635 (Simulation time: 0 hr 23 min 36 sec) 
Heartbeat CPU 0 instructions: 70000000 cycles: 31412571 heartbeat IPC: 1.07636 cumulative IPC: 1.07636 (Simulation time: 0 hr 27 min 2 sec) 
Heartbeat CPU 0 instructions: 80000000 cycles: 40703982 heartbeat IPC: 1.07626 cumulative IPC: 1.07633 (Simulation time: 0 hr 30 min 30 sec) 
Heartbeat CPU 0 instructions: 90000000 cycles: 49995130 heartbeat IPC: 1.07629 cumulative IPC: 1.07632 (Simulation time: 0 hr 34 min 3 sec) 
Heartbeat CPU 0 instructions: 100000002 cycles: 59286155 heartbeat IPC: 1.07631 cumulative IPC: 1.07632 (Simulation time: 0 hr 37 min 14 sec) 
Heartbeat CPU 0 instructions: 110000000 cycles: 68577261 heartbeat IPC: 1.0763 cumulative IPC: 1.07631 (Simulation time: 0 hr 40 min 31 sec) 
Heartbeat CPU 0 instructions: 120000000 cycles: 77868031 heartbeat IPC: 1.07634 cumulative IPC: 1.07632 (Simulation time: 0 hr 43 min 58 sec) 
Heartbeat CPU 0 instructions: 130000000 cycles: 87158968 heartbeat IPC: 1.07632 cumulative IPC: 1.07632 (Simulation time: 0 hr 47 min 37 sec) 
Heartbeat CPU 0 instructions: 140000000 cycles: 96450071 heartbeat IPC: 1.0763 cumulative IPC: 1.07631 (Simulation time: 0 hr 50 min 40 sec) 
Heartbeat CPU 0 instructions: 150000001 cycles: 105741429 heartbeat IPC: 1.07627 cumulative IPC: 1.07631 (Simulation time: 0 hr 53 min 55 sec) 
Heartbeat CPU 0 instructions: 160000000 cycles: 115032817 heartbeat IPC: 1.07627 cumulative IPC: 1.07631 (Simulation time: 0 hr 56 min 27 sec) 
Heartbeat CPU 0 instructions: 170000000 cycles: 124323769 heartbeat IPC: 1.07632 cumulative IPC: 1.07631 (Simulation time: 0 hr 59 min 22 sec) 
Heartbeat CPU 0 instructions: 180000001 cycles: 133614796 heartbeat IPC: 1.07631 cumulative IPC: 1.07631 (Simulation time: 1 hr 2 min 58 sec) 
Heartbeat CPU 0 instructions: 190000003 cycles: 142905941 heartbeat IPC: 1.07629 cumulative IPC: 1.07631 (Simulation time: 1 hr 6 min 10 sec) 
Heartbeat CPU 0 instructions: 200000000 cycles: 152196889 heartbeat IPC: 1.07632 cumulative IPC: 1.07631 (Simulation time: 1 hr 9 min 30 sec) 
Heartbeat CPU 0 instructions: 210000000 cycles: 161488236 heartbeat IPC: 1.07627 cumulative IPC: 1.0763 (Simulation time: 1 hr 12 min 53 sec) 
Heartbeat CPU 0 instructions: 220000000 cycles: 170778964 heartbeat IPC: 1.07634 cumulative IPC: 1.07631 (Simulation time: 1 hr 16 min 25 sec) 
Heartbeat CPU 0 instructions: 230000003 cycles: 180070275 heartbeat IPC: 1.07627 cumulative IPC: 1.0763 (Simulation time: 1 hr 19 min 43 sec) 
Heartbeat CPU 0 instructions: 240000002 cycles: 189361357 heartbeat IPC: 1.0763 cumulative IPC: 1.0763 (Simulation time: 1 hr 22 min 39 sec) 
Heartbeat CPU 0 instructions: 250000000 cycles: 198652718 heartbeat IPC: 1.07627 cumulative IPC: 1.0763 (Simulation time: 1 hr 25 min 47 sec) 
Finished CPU 0 instructions: 200000000 cycles: 185821357 cumulative IPC: 1.0763 (Simulation time: 1 hr 25 min 47 sec) 

ChampSim completed all CPUs

Region of Interest Statistics

CPU 0 cumulative IPC: 1.0763 instructions: 200000000 cycles: 185821357
ITLB TOTAL     ACCESS:   27571684  HIT:   27571684  MISS:          0  HIT %:        100  MISS %:          0   MPKI: 0
ITLB LOAD TRANSLATION ACCESS:   27571684  HIT:   27571684  MISS:          0  HIT %:        100  MISS %:          0   MPKI: 0
ITLB PREFETCH  REQUESTED:          0  ISSUED:          0  USEFUL:          0  USELESS:          0
ITLB USEFUL LOAD PREFETCHES:          0 PREFETCH ISSUED TO LOWER LEVEL:          0  ACCURACY: -nan
ITLB TIMELY PREFETCHES:          0 LATE PREFETCHES: 0 DROPPED PREFETCHES: 0
ITLB PREFETCHES SAME FILL-ORIGIN LEVEL: 0 DIFFERENT FILL-ORIGIN LEVEL: 0
ITLB AVERAGE MISS LATENCY: -nan cycles
ITLB RQ	ACCESS:   34387309	FORWARD:          0	MERGED:    6815626	TO_CACHE:   27571683

DTLB TOTAL     ACCESS:   20048068  HIT:   19955113  MISS:      92955  HIT %:    99.5363  MISS %:   0.463661   MPKI: 0.464775
DTLB LOAD TRANSLATION ACCESS:   20048068  HIT:   19955113  MISS:      92955  HIT %:    99.5363  MISS %:   0.463661   MPKI: 0.464775
DTLB PREFETCH  REQUESTED:          0  ISSUED:          0  USEFUL:          0  USELESS:          0
DTLB USEFUL LOAD PREFETCHES:          0 PREFETCH ISSUED TO LOWER LEVEL:          0  ACCURACY: -nan
DTLB TIMELY PREFETCHES:          0 LATE PREFETCHES: 0 DROPPED PREFETCHES: 0
DTLB PREFETCHES SAME FILL-ORIGIN LEVEL: 0 DIFFERENT FILL-ORIGIN LEVEL: 0
DTLB AVERAGE MISS LATENCY: 9.04173 cycles
DTLB RQ	ACCESS:   20117644	FORWARD:          0	MERGED:      68593	TO_CACHE:   20049051

STLB TOTAL     ACCESS:   21188998  HIT:   21188876  MISS:        122  HIT %:    99.9994  MISS %: 0.000575771   MPKI: 0.00061
STLB LOAD TRANSLATION ACCESS:      92955  HIT:      92833  MISS:        122  HIT %:    99.8688  MISS %:   0.131246   MPKI: 0.00061
STLB TRANSLATION FROM L1D PREFETCHER ACCESS:   21096043  HIT:   21096043  MISS:          0  HIT %:        100  MISS %:          0   MPKI: 0
STLB PREFETCH  REQUESTED:          0  ISSUED:          0  USEFUL:          0  USELESS:          0
STLB USEFUL LOAD PREFETCHES:          0 PREFETCH ISSUED TO LOWER LEVEL:          0  ACCURACY: -nan
STLB TIMELY PREFETCHES:          0 LATE PREFETCHES: 45 DROPPED PREFETCHES: 197659
STLB PREFETCHES SAME FILL-ORIGIN LEVEL: 0 DIFFERENT FILL-ORIGIN LEVEL: 0
STLB AVERAGE MISS LATENCY: 113.77 cycles
STLB RQ	ACCESS:  103445143	FORWARD:          0	MERGED:   82057823	TO_CACHE:   21387320

STLB Hit, L1D data hit: 0
STLB Hit, L2C data hit: 0
STLB Hit, LLC data hit: 0
STLB Hit, LLC data miss: 0
STLB STLB hints to L2: 0
L1D TOTAL     ACCESS:  110814229  HIT:  108751923  MISS:    2062306  HIT %:     98.139  MISS %:    1.86105   MPKI: 10.3115
L1D LOAD      ACCESS:   20099843  HIT:   20028918  MISS:      70925  HIT %:    99.6471  MISS %:   0.352863   MPKI: 0.354625
L1D RFO       ACCESS:       9222  HIT:       8054  MISS:       1168  HIT %:    87.3346  MISS %:    12.6654   MPKI: 0.00584
L1D PREFETCH  ACCESS:   90705164  HIT:   88714951  MISS:    1990213  HIT %:    97.8058  MISS %:    2.19416   MPKI: 9.95106
L1D PREFETCH  REQUESTED:  224464000  ISSUED:  207586274  USEFUL:    1707925  USELESS:     282293
L1D USEFUL LOAD PREFETCHES:    1707925 PREFETCH ISSUED TO LOWER LEVEL:   14224376  ACCURACY: 12.007
L1D TIMELY PREFETCHES:    1707925 LATE PREFETCHES: 4580 DROPPED PREFETCHES: 410659
L1D PREFETCHES SAME FILL-ORIGIN LEVEL: 1994794 DIFFERENT FILL-ORIGIN LEVEL: 12229582
L1D AVERAGE MISS LATENCY: 15.1691 cycles
L1D RQ	ACCESS:   34513891	FORWARD:          0	MERGED:   14405733	TO_CACHE:   20108102
L1D WQ	ACCESS:      10044	FORWARD:         56	MERGED:        502	TO_CACHE:       9542
L1D PQ	ACCESS:  104234086	FORWARD:          0	MERGED:     881898	TO_CACHE:  103352188

L1D UNIQUE REGIONS ACCESSED: 0
L1D REGIONS CONFLICTS: 0
L1D Cross Page Prefetch Requests: 17655962
L1D Same Page Prefetch Requests: 109317372
L1D ROI Sum of L1D PQ occupancy: 1747214937
L1D PREFETCHES PUSHED FROM L2C: 0
L1I TOTAL     ACCESS:   34387310  HIT:   34387310  MISS:          0  HIT %:        100  MISS %:          0   MPKI: 0
L1I LOAD      ACCESS:   34387310  HIT:   34387310  MISS:          0  HIT %:        100  MISS %:          0   MPKI: 0
L1I PREFETCH  REQUESTED:          0  ISSUED:          0  USEFUL:          0  USELESS:          0
L1I USEFUL LOAD PREFETCHES:          0 PREFETCH ISSUED TO LOWER LEVEL:          0  ACCURACY: -nan
L1I TIMELY PREFETCHES:          0 LATE PREFETCHES: 0 DROPPED PREFETCHES: 0
L1I PREFETCHES SAME FILL-ORIGIN LEVEL: 0 DIFFERENT FILL-ORIGIN LEVEL: 0
L1I AVERAGE MISS LATENCY: -nan cycles
L1I RQ	ACCESS:   55022016	FORWARD:          0	MERGED:   20634707	TO_CACHE:   34387309

BTB TOTAL     ACCESS:   13821456  HIT:   13821432  MISS:         24  HIT %:    99.9998  MISS %: 0.000173643   MPKI: 0.00012
BTB BRANCH_DIRECT_JUMP	ACCESS:       1117  HIT:       1114  MISS:          3
BTB BRANCH_INDIRECT	ACCESS:          0  HIT:          0  MISS:          0
BTB BRANCH_CONDITIONAL	ACCESS:   13820339  HIT:   13820318  MISS:         21
BTB BRANCH_DIRECT_CALL	ACCESS:          0  HIT:          0  MISS:          0
BTB BRANCH_INDIRECT_CALL	ACCESS:          0  HIT:          0  MISS:          0
BTB BRANCH_RETURN	ACCESS:          0  HIT:          0  MISS:          0
BTB BRANCH_OTHER ACCESS:          0  HIT:          0  MISS:          0

L2C TOTAL     ACCESS:   14490402  HIT:   14480723  MISS:       9679  HIT %:    99.9332  MISS %:  0.0667959   MPKI: 0.048395
L2C LOAD      ACCESS:      66345  HIT:      66262  MISS:         83  HIT %:    99.8749  MISS %:   0.125104   MPKI: 0.000415
L2C DATA LOAD MPKI: 0.000415
L2C INSTRUCTION LOAD MPKI: 0
L2C RFO       ACCESS:       1167  HIT:       1155  MISS:         12  HIT %:    98.9717  MISS %:    1.02828   MPKI: 6e-05
L2C PREFETCH  ACCESS:   14222204  HIT:   14212721  MISS:       9483  HIT %:    99.9333  MISS %:  0.0666774   MPKI: 0.047415
L2C DATA PREFETCH MPKI: 0.047415
L2C INSTRUCTION PREFETCH MPKI: 0
L2C WRITEBACK ACCESS:       2860  HIT:       2860  MISS:          0  HIT %:        100  MISS %:          0   MPKI: 0
L2C LOAD TRANSLATION ACCESS:        122  HIT:        122  MISS:          0  HIT %:        100  MISS %:          0   MPKI: 0
L2C TRANSLATION FROM L1D PREFETCHER ACCESS:     197704  HIT:     197603  MISS:        101  HIT %:    99.9489  MISS %:  0.0510865   MPKI: 0.000505
L2C PREFETCH  REQUESTED:          0  ISSUED:          0  USEFUL:       7794  USELESS:       2317
L2C USEFUL LOAD PREFETCHES:       7794 PREFETCH ISSUED TO LOWER LEVEL:       9486  ACCURACY: 82.1632
L2C TIMELY PREFETCHES:       7794 LATE PREFETCHES: 3 DROPPED PREFETCHES: 0
L2C PREFETCHES SAME FILL-ORIGIN LEVEL: 7862 DIFFERENT FILL-ORIGIN LEVEL: 0
L2C AVERAGE MISS LATENCY: 153.876 cycles
L2C RQ	ACCESS:     265338	FORWARD:          0	MERGED:          0	TO_CACHE:     265338
L2C WQ	ACCESS:       2860	FORWARD:          0	MERGED:          0	TO_CACHE:       2860
L2C PQ	ACCESS:   14224376	FORWARD:          0	MERGED:          0	TO_CACHE:   14224376

L2C Instructions Evicting Data 0
L2C Translations Evicting Data 99
L2C Data Evicting Data 8035
L2C Instructions Evicting Instructions 0
L2C Translations Evicting Instructions 0
L2C Data Evicting Instructions 18
L2C Instructions Evicting Translations 0
L2C Translations Evicting Translations 0
L2C Data Evicting Translations 160
L2C Dense regions hint from L2: 0
PSCL5 TOTAL     ACCESS:     197826  HIT:     197826  MISS:          0  HIT %:        100  MISS %:          0   MPKI: 0
PSCL5 LOAD TRANSLATION ACCESS:        122  HIT:        122  MISS:          0  HIT %:        100  MISS %:          0   MPKI: 0
PSCL5 TRANSLATION FROM L1D PREFETCHER ACCESS:     197704  HIT:     197704  MISS:          0  HIT %:        100  MISS %:          0   MPKI: 0
PSCL5 PREFETCH  REQUESTED:          0  ISSUED:          0  USEFUL:          0  USELESS:          0
PSCL5 USEFUL LOAD PREFETCHES:          0 PREFETCH ISSUED TO LOWER LEVEL:          0  ACCURACY: -nan
PSCL5 TIMELY PREFETCHES:          0 LATE PREFETCHES: 0 DROPPED PREFETCHES: 0
PSCL5 PREFETCHES SAME FILL-ORIGIN LEVEL: 0 DIFFERENT FILL-ORIGIN LEVEL: 0

PSCL4 TOTAL     ACCESS:     197826  HIT:     197826  MISS:          0  HIT %:        100  MISS %:          0   MPKI: 0
PSCL4 LOAD TRANSLATION ACCESS:        122  HIT:        122  MISS:          0  HIT %:        100  MISS %:          0   MPKI: 0
PSCL4 TRANSLATION FROM L1D PREFETCHER ACCESS:     197704  HIT:     197704  MISS:          0  HIT %:        100  MISS %:          0   MPKI: 0
PSCL4 PREFETCH  REQUESTED:          0  ISSUED:          0  USEFUL:          0  USELESS:          0
PSCL4 USEFUL LOAD PREFETCHES:          0 PREFETCH ISSUED TO LOWER LEVEL:          0  ACCURACY: -nan
PSCL4 TIMELY PREFETCHES:          0 LATE PREFETCHES: 0 DROPPED PREFETCHES: 0
PSCL4 PREFETCHES SAME FILL-ORIGIN LEVEL: 0 DIFFERENT FILL-ORIGIN LEVEL: 0

PSCL3 TOTAL     ACCESS:     197826  HIT:     197826  MISS:          0  HIT %:        100  MISS %:          0   MPKI: 0
PSCL3 LOAD TRANSLATION ACCESS:        122  HIT:        122  MISS:          0  HIT %:        100  MISS %:          0   MPKI: 0
PSCL3 TRANSLATION FROM L1D PREFETCHER ACCESS:     197704  HIT:     197704  MISS:          0  HIT %:        100  MISS %:          0   MPKI: 0
PSCL3 PREFETCH  REQUESTED:          0  ISSUED:          0  USEFUL:          0  USELESS:          0
PSCL3 USEFUL LOAD PREFETCHES:          0 PREFETCH ISSUED TO LOWER LEVEL:          0  ACCURACY: -nan
PSCL3 TIMELY PREFETCHES:          0 LATE PREFETCHES: 0 DROPPED PREFETCHES: 0
PSCL3 PREFETCHES SAME FILL-ORIGIN LEVEL: 0 DIFFERENT FILL-ORIGIN LEVEL: 0

PSCL2 TOTAL     ACCESS:     197826  HIT:     197826  MISS:          0  HIT %:        100  MISS %:          0   MPKI: 0
PSCL2 LOAD TRANSLATION ACCESS:        122  HIT:        122  MISS:          0  HIT %:        100  MISS %:          0   MPKI: 0
PSCL2 TRANSLATION FROM L1D PREFETCHER ACCESS:     197704  HIT:     197704  MISS:          0  HIT %:        100  MISS %:          0   MPKI: 0
PSCL2 PREFETCH  REQUESTED:          0  ISSUED:          0  USEFUL:          0  USELESS:          0
PSCL2 USEFUL LOAD PREFETCHES:          0 PREFETCH ISSUED TO LOWER LEVEL:          0  ACCURACY: -nan
PSCL2 TIMELY PREFETCHES:          0 LATE PREFETCHES: 0 DROPPED PREFETCHES: 0
PSCL2 PREFETCHES SAME FILL-ORIGIN LEVEL: 0 DIFFERENT FILL-ORIGIN LEVEL: 0

LLC TOTAL     ACCESS:       9727  HIT:       1856  MISS:       7871  HIT %:    19.0809  MISS %:    80.9191   MPKI: 0.039355
LLC LOAD      ACCESS:         80  HIT:          5  MISS:         75  HIT %:       6.25  MISS %:      93.75   MPKI: 0.000375
LLC RFO       ACCESS:         12  HIT:          0  MISS:         12  HIT %:          0  MISS %:        100   MPKI: 6e-05
LLC PREFETCH  ACCESS:       9486  HIT:       1723  MISS:       7763  HIT %:    18.1636  MISS %:    81.8364   MPKI: 0.038815
LLC WRITEBACK ACCESS:         48  HIT:         48  MISS:          0  HIT %:        100  MISS %:          0   MPKI: 0
LLC TRANSLATION FROM L1D PREFETCHER ACCESS:        101  HIT:         80  MISS:         21  HIT %:    79.2079  MISS %:    20.7921   MPKI: 0.000105
LLC PREFETCH  REQUESTED:          0  ISSUED:          0  USEFUL:         76  USELESS:        148
LLC USEFUL LOAD PREFETCHES:         76 PREFETCH ISSUED TO LOWER LEVEL:       7763  ACCURACY: 0.979003
LLC TIMELY PREFETCHES:         76 LATE PREFETCHES: 0 DROPPED PREFETCHES: 0
LLC PREFETCHES SAME FILL-ORIGIN LEVEL: 0 DIFFERENT FILL-ORIGIN LEVEL: 0
LLC AVERAGE MISS LATENCY: 152.328 cycles
LLC RQ	ACCESS:        193	FORWARD:          0	MERGED:          0	TO_CACHE:        193
LLC WQ	ACCESS:         48	FORWARD:          0	MERGED:          0	TO_CACHE:         48
LLC PQ	ACCESS:       9486	FORWARD:          0	MERGED:          0	TO_CACHE:       9486

LLC Dense regions hint to LLC: 0

RAW hits: 5995
Loads Generated: 34519887
Loads sent to L1D: 34513891
Stores Generated: 10044
Stores sent to L1D: 10044
Major fault: 0 Minor fault: 338
Allocated PAGES: 338

DRAM Statistics
 CHANNEL 0
 RQ ROW_BUFFER_HIT:       1391  ROW_BUFFER_MISS:       6480
 DBUS_CONGESTED:          0
 WQ ROW_BUFFER_HIT:          0  ROW_BUFFER_MISS:          0  FULL:          0

 AVG_CONGESTED_CYCLE: -
 All warmup complete: 2
Channel 0 Bank busy for read cycles: 0
Channel 0 Bank busy for write cycles: 0
Channel 0
Rank 0
0banks busy for read cycles: 184884059
0banks busy for write cycles: 0
1banks busy for read cycles: 917999
1banks busy for write cycles: 0
2banks busy for read cycles: 2110
2banks busy for write cycles: 0
3banks busy for read cycles: 1242
3banks busy for write cycles: 0
4banks busy for read cycles: 1238
4banks busy for write cycles: 0
5banks busy for read cycles: 513
5banks busy for write cycles: 0
6banks busy for read cycles: 611
6banks busy for write cycles: 0
7banks busy for read cycles: 4266
7banks busy for write cycles: 0
8banks busy for read cycles: 9320
8banks busy for write cycles: 0

CPU 0 Branch Prediction Accuracy: 99.997% MPKI: 0.00307 Average ROB Occupancy at Mispredict: 21.2394
Branch types
NOT_BRANCH: 179299049 89.6495%
BRANCH_DIRECT_JUMP: 1117 0.0005585%
BRANCH_INDIRECT: 0 0%
BRANCH_CONDITIONAL: 20699497 10.3497%
BRANCH_DIRECT_CALL: 0 0%
BRANCH_INDIRECT_CALL: 0 0%
BRANCH_RETURN: 0 0%
BRANCH_OTHER: 0 0%

DRAM PAGES: 1048576
Allocated PAGES: 338
