526208 bits of metadata so far, 405638 left out of 526336 total budget
table size is 13521 bits, 2253 entries for 5 bit, 1931 entries for 6 bit
526208 total bits (64.23KB)

*** ChampSim Multicore Out-of-Order Simulator ***

Warmup Instructions: 50000000
Simulation Instructions: 200000000
Number of CPUs: 1
LLC sets: 2048
LLC ways: 16
Off-chip DRAM Size: 4096 MB Channels: 1 Width: 64-bit Data Rate: 6400 MT/s
argv[0]: ./ChampSim/Berti/bin/multiperspective_perceptron-no-vberti-no-no-no-no-no-lru-lru-lru-srrip-drrip-lru-lru-lru-1core-no
argv[1]: -warmup_instructions
argv[2]: 50000000
argv[3]: -simulation_instructions
argv[4]: 200000000
argv[5]: -traces
argv[6]: traces/spec2k17_ten/638.imagick_s-4128B.champsimtrace.xz
CPU 0 runs traces/spec2k17_ten/638.imagick_s-4128B.champsimtrace.xz
.xz
CPU 0 Multiperspective perceptron branch predictor
BTB has LRU replacement policy
ITLB has LRU replacement policy
DTLB has LRU replacement policy
STLB has LRU replacement policy
L1I has LRU replacement policy
History Sets: 8
History Ways: 16
BERTI Size: 16
BERTI Stride Size: 16
L1D has LRU replacement policy
Initialize SRRIP state for L2C
Initialize DRRIP state for LLC
Heartbeat CPU 0 instructions: 10000001 cycles: 2690100 heartbeat IPC: 3.71733 cumulative IPC: 3.71733 (Simulation time: 0 hr 3 min 16 sec) 
Heartbeat CPU 0 instructions: 20000002 cycles: 5379939 heartbeat IPC: 3.71769 cumulative IPC: 3.71751 (Simulation time: 0 hr 9 min 35 sec) 
Heartbeat CPU 0 instructions: 30000000 cycles: 8069842 heartbeat IPC: 3.71761 cumulative IPC: 3.71754 (Simulation time: 0 hr 15 min 19 sec) 
Heartbeat CPU 0 instructions: 40000001 cycles: 10759830 heartbeat IPC: 3.71749 cumulative IPC: 3.71753 (Simulation time: 0 hr 19 min 48 sec) 
Heartbeat CPU 0 instructions: 50000000 cycles: 13449609 heartbeat IPC: 3.71778 cumulative IPC: 3.71758 (Simulation time: 0 hr 23 min 59 sec) 

Warmup complete CPU 0 instructions: 50000004 cycles: 13449610 (Simulation time: 0 hr 23 min 59 sec) 

Heartbeat CPU 0 instructions: 60000000 cycles: 23372653 heartbeat IPC: 1.00776 cumulative IPC: 1.00775 (Simulation time: 0 hr 28 min 38 sec) 
Heartbeat CPU 0 instructions: 70000001 cycles: 33294367 heartbeat IPC: 1.00789 cumulative IPC: 1.00782 (Simulation time: 0 hr 32 min 25 sec) 
Heartbeat CPU 0 instructions: 80000003 cycles: 43215659 heartbeat IPC: 1.00793 cumulative IPC: 1.00786 (Simulation time: 0 hr 36 min 5 sec) 
Heartbeat CPU 0 instructions: 90000001 cycles: 53136941 heartbeat IPC: 1.00793 cumulative IPC: 1.00788 (Simulation time: 0 hr 39 min 45 sec) 
Heartbeat CPU 0 instructions: 100000000 cycles: 63057519 heartbeat IPC: 1.00801 cumulative IPC: 1.0079 (Simulation time: 0 hr 43 min 30 sec) 
Heartbeat CPU 0 instructions: 110000000 cycles: 72979394 heartbeat IPC: 1.00787 cumulative IPC: 1.0079 (Simulation time: 0 hr 46 min 37 sec) 
Heartbeat CPU 0 instructions: 120000003 cycles: 82901208 heartbeat IPC: 1.00788 cumulative IPC: 1.0079 (Simulation time: 0 hr 50 min 56 sec) 
Heartbeat CPU 0 instructions: 130000000 cycles: 92821676 heartbeat IPC: 1.00802 cumulative IPC: 1.00791 (Simulation time: 0 hr 54 min 22 sec) 
Heartbeat CPU 0 instructions: 140000000 cycles: 102743321 heartbeat IPC: 1.0079 cumulative IPC: 1.00791 (Simulation time: 0 hr 58 min 22 sec) 
Heartbeat CPU 0 instructions: 150000002 cycles: 112664237 heartbeat IPC: 1.00797 cumulative IPC: 1.00792 (Simulation time: 1 hr 2 min 7 sec) 
Heartbeat CPU 0 instructions: 160000001 cycles: 122585848 heartbeat IPC: 1.0079 cumulative IPC: 1.00791 (Simulation time: 1 hr 4 min 58 sec) 
Heartbeat CPU 0 instructions: 170000003 cycles: 132507139 heartbeat IPC: 1.00793 cumulative IPC: 1.00792 (Simulation time: 1 hr 8 min 46 sec) 
Heartbeat CPU 0 instructions: 180000003 cycles: 142428761 heartbeat IPC: 1.0079 cumulative IPC: 1.00791 (Simulation time: 1 hr 12 min 49 sec) 
Heartbeat CPU 0 instructions: 190000003 cycles: 152349513 heartbeat IPC: 1.00799 cumulative IPC: 1.00792 (Simulation time: 1 hr 16 min 31 sec) 
Heartbeat CPU 0 instructions: 200000002 cycles: 162271910 heartbeat IPC: 1.00782 cumulative IPC: 1.00791 (Simulation time: 1 hr 20 min 24 sec) 
Heartbeat CPU 0 instructions: 210000002 cycles: 172192363 heartbeat IPC: 1.00802 cumulative IPC: 1.00792 (Simulation time: 1 hr 23 min 1 sec) 
Heartbeat CPU 0 instructions: 220000000 cycles: 182113956 heartbeat IPC: 1.0079 cumulative IPC: 1.00792 (Simulation time: 1 hr 26 min 11 sec) 
Heartbeat CPU 0 instructions: 230000001 cycles: 192035729 heartbeat IPC: 1.00788 cumulative IPC: 1.00792 (Simulation time: 1 hr 28 min 42 sec) 
Heartbeat CPU 0 instructions: 240000003 cycles: 201956743 heartbeat IPC: 1.00796 cumulative IPC: 1.00792 (Simulation time: 1 hr 31 min 10 sec) 
Heartbeat CPU 0 instructions: 250000003 cycles: 211877246 heartbeat IPC: 1.00801 cumulative IPC: 1.00792 (Simulation time: 1 hr 33 min 28 sec) 
Finished CPU 0 instructions: 200000003 cycles: 198427637 cumulative IPC: 1.00792 (Simulation time: 1 hr 33 min 28 sec) 

ChampSim completed all CPUs

Region of Interest Statistics

CPU 0 cumulative IPC: 1.00792 instructions: 200000003 cycles: 198427637
ITLB TOTAL     ACCESS:   32951331  HIT:   32951331  MISS:          0  HIT %:        100  MISS %:          0   MPKI: 0
ITLB LOAD TRANSLATION ACCESS:   32951331  HIT:   32951331  MISS:          0  HIT %:        100  MISS %:          0   MPKI: 0
ITLB PREFETCH  REQUESTED:          0  ISSUED:          0  USEFUL:          0  USELESS:          0
ITLB USEFUL LOAD PREFETCHES:          0 PREFETCH ISSUED TO LOWER LEVEL:          0  ACCURACY: -nan
ITLB TIMELY PREFETCHES:          0 LATE PREFETCHES: 0 DROPPED PREFETCHES: 0
ITLB PREFETCHES SAME FILL-ORIGIN LEVEL: 0 DIFFERENT FILL-ORIGIN LEVEL: 0
ITLB AVERAGE MISS LATENCY: -nan cycles
ITLB RQ	ACCESS:   39662237	FORWARD:          0	MERGED:    6710906	TO_CACHE:   32951331

DTLB TOTAL     ACCESS:   28009701  HIT:   27936413  MISS:      73288  HIT %:    99.7383  MISS %:   0.261652   MPKI: 0.36644
DTLB LOAD TRANSLATION ACCESS:   28009701  HIT:   27936413  MISS:      73288  HIT %:    99.7383  MISS %:   0.261652   MPKI: 0.36644
DTLB PREFETCH  REQUESTED:          0  ISSUED:          0  USEFUL:          0  USELESS:          0
DTLB USEFUL LOAD PREFETCHES:          0 PREFETCH ISSUED TO LOWER LEVEL:          0  ACCURACY: -nan
DTLB TIMELY PREFETCHES:          0 LATE PREFETCHES: 0 DROPPED PREFETCHES: 0
DTLB PREFETCHES SAME FILL-ORIGIN LEVEL: 0 DIFFERENT FILL-ORIGIN LEVEL: 0
DTLB AVERAGE MISS LATENCY: 9.44785 cycles
DTLB RQ	ACCESS:   32723294	FORWARD:          0	MERGED:    4697444	TO_CACHE:   28025850

STLB TOTAL     ACCESS:   11815029  HIT:   11814693  MISS:        336  HIT %:    99.9972  MISS %: 0.00284384   MPKI: 0.00168
STLB LOAD TRANSLATION ACCESS:      73288  HIT:      72952  MISS:        336  HIT %:    99.5415  MISS %:   0.458465   MPKI: 0.00168
STLB TRANSLATION FROM L1D PREFETCHER ACCESS:   11741741  HIT:   11741741  MISS:          0  HIT %:        100  MISS %:          0   MPKI: 0
STLB PREFETCH  REQUESTED:          0  ISSUED:          0  USEFUL:          0  USELESS:          0
STLB USEFUL LOAD PREFETCHES:          0 PREFETCH ISSUED TO LOWER LEVEL:          0  ACCURACY: -nan
STLB TIMELY PREFETCHES:          0 LATE PREFETCHES: 15 DROPPED PREFETCHES: 1129900
STLB PREFETCHES SAME FILL-ORIGIN LEVEL: 0 DIFFERENT FILL-ORIGIN LEVEL: 0
STLB AVERAGE MISS LATENCY: 112.268 cycles
STLB RQ	ACCESS:   49577175	FORWARD:          0	MERGED:   36618399	TO_CACHE:   12958776

STLB Hit, L1D data hit: 0
STLB Hit, L2C data hit: 0
STLB Hit, LLC data hit: 0
STLB Hit, LLC data miss: 0
STLB STLB hints to L2: 0
L1D TOTAL     ACCESS:   80054341  HIT:   80031710  MISS:      22631  HIT %:    99.9717  MISS %:  0.0282695   MPKI: 0.113155
L1D LOAD      ACCESS:   26381242  HIT:   26360643  MISS:      20599  HIT %:    99.9219  MISS %:   0.078082   MPKI: 0.102995
L1D RFO       ACCESS:    6340668  HIT:    6339993  MISS:        675  HIT %:    99.9894  MISS %:  0.0106456   MPKI: 0.003375
L1D PREFETCH  ACCESS:   47332431  HIT:   47331074  MISS:       1357  HIT %:    99.9971  MISS %: 0.00286696   MPKI: 0.006785
L1D PREFETCH  REQUESTED:  101251042  ISSUED:  101251003  USEFUL:       1330  USELESS:         41
L1D USEFUL LOAD PREFETCHES:       1330 PREFETCH ISSUED TO LOWER LEVEL:    1016932  ACCURACY: 0.130786
L1D TIMELY PREFETCHES:       1330 LATE PREFETCHES: 0 DROPPED PREFETCHES: 1154655
L1D PREFETCHES SAME FILL-ORIGIN LEVEL: 1357 DIFFERENT FILL-ORIGIN LEVEL: 1015575
L1D AVERAGE MISS LATENCY: 22.9784 cycles
L1D RQ	ACCESS:   59032447	FORWARD:          0	MERGED:   32641199	TO_CACHE:   26381282
L1D WQ	ACCESS:    6342012	FORWARD:       9966	MERGED:          0	TO_CACHE:    6342012
L1D PQ	ACCESS:   51747116	FORWARD:          0	MERGED:    2243229	TO_CACHE:   49503887

L1D UNIQUE REGIONS ACCESSED: 0
L1D REGIONS CONFLICTS: 0
L1D Cross Page Prefetch Requests: 14198498
L1D Same Page Prefetch Requests: 55707296
L1D ROI Sum of L1D PQ occupancy: 803970264
L1D PREFETCHES PUSHED FROM L2C: 0
L1I TOTAL     ACCESS:   39662234  HIT:   39662234  MISS:          0  HIT %:        100  MISS %:          0   MPKI: 0
L1I LOAD      ACCESS:   39662234  HIT:   39662234  MISS:          0  HIT %:        100  MISS %:          0   MPKI: 0
L1I PREFETCH  REQUESTED:          0  ISSUED:          0  USEFUL:          0  USELESS:          0
L1I USEFUL LOAD PREFETCHES:          0 PREFETCH ISSUED TO LOWER LEVEL:          0  ACCURACY: -nan
L1I TIMELY PREFETCHES:          0 LATE PREFETCHES: 0 DROPPED PREFETCHES: 0
L1I PREFETCHES SAME FILL-ORIGIN LEVEL: 0 DIFFERENT FILL-ORIGIN LEVEL: 0
L1I AVERAGE MISS LATENCY: -nan cycles
L1I RQ	ACCESS:   54281602	FORWARD:          0	MERGED:   14619365	TO_CACHE:   39662237

BTB TOTAL     ACCESS:   13959700  HIT:   13805307  MISS:     154393  HIT %:     98.894  MISS %:    1.10599   MPKI: 0.771965
BTB BRANCH_DIRECT_JUMP	ACCESS:     205772  HIT:     205762  MISS:         10
BTB BRANCH_INDIRECT	ACCESS:          0  HIT:          0  MISS:          0
BTB BRANCH_CONDITIONAL	ACCESS:   13361060  HIT:   13361037  MISS:         23
BTB BRANCH_DIRECT_CALL	ACCESS:     196434  HIT:     196422  MISS:         12
BTB BRANCH_INDIRECT_CALL	ACCESS:          0  HIT:          0  MISS:          0
BTB BRANCH_RETURN	ACCESS:     196434  HIT:      42086  MISS:     154348
BTB BRANCH_OTHER ACCESS:          0  HIT:          0  MISS:          0

L2C TOTAL     ACCESS:    2168983  HIT:    2147206  MISS:      21777  HIT %:     98.996  MISS %:    1.00402   MPKI: 0.108885
L2C LOAD      ACCESS:      20599  HIT:      20267  MISS:        332  HIT %:    98.3883  MISS %:    1.61173   MPKI: 0.00166
L2C DATA LOAD MPKI: 0.00166
L2C INSTRUCTION LOAD MPKI: 0
L2C RFO       ACCESS:        675  HIT:         90  MISS:        585  HIT %:    13.3333  MISS %:    86.6667   MPKI: 0.002925
L2C PREFETCH  ACCESS:    1016785  HIT:     995994  MISS:      20791  HIT %:    97.9552  MISS %:    2.04478   MPKI: 0.103955
L2C DATA PREFETCH MPKI: 0.103955
L2C INSTRUCTION PREFETCH MPKI: 0
L2C WRITEBACK ACCESS:        673  HIT:        672  MISS:          1  HIT %:    99.8514  MISS %:   0.148588   MPKI: 5e-06
L2C LOAD TRANSLATION ACCESS:        336  HIT:        334  MISS:          2  HIT %:    99.4048  MISS %:   0.595238   MPKI: 1e-05
L2C TRANSLATION FROM L1D PREFETCHER ACCESS:    1129915  HIT:    1129849  MISS:         66  HIT %:    99.9942  MISS %: 0.00584115   MPKI: 0.00033
L2C PREFETCH  REQUESTED:          0  ISSUED:          0  USEFUL:      19498  USELESS:       1230
L2C USEFUL LOAD PREFETCHES:      19498 PREFETCH ISSUED TO LOWER LEVEL:      20822  ACCURACY: 93.6413
L2C TIMELY PREFETCHES:      19498 LATE PREFETCHES: 31 DROPPED PREFETCHES: 0
L2C PREFETCHES SAME FILL-ORIGIN LEVEL: 20789 DIFFERENT FILL-ORIGIN LEVEL: 0
L2C AVERAGE MISS LATENCY: 149.664 cycles
L2C RQ	ACCESS:    1151525	FORWARD:          0	MERGED:          0	TO_CACHE:    1151525
L2C WQ	ACCESS:        673	FORWARD:          0	MERGED:          0	TO_CACHE:        673
L2C PQ	ACCESS:    1016932	FORWARD:          0	MERGED:          0	TO_CACHE:    1016932

L2C Instructions Evicting Data 0
L2C Translations Evicting Data 64
L2C Data Evicting Data 19546
L2C Instructions Evicting Instructions 0
L2C Translations Evicting Instructions 0
L2C Data Evicting Instructions 55
L2C Instructions Evicting Translations 0
L2C Translations Evicting Translations 0
L2C Data Evicting Translations 84
L2C Dense regions hint from L2: 0
PSCL5 TOTAL     ACCESS:    1130251  HIT:    1130251  MISS:          0  HIT %:        100  MISS %:          0   MPKI: 0
PSCL5 LOAD TRANSLATION ACCESS:        336  HIT:        336  MISS:          0  HIT %:        100  MISS %:          0   MPKI: 0
PSCL5 TRANSLATION FROM L1D PREFETCHER ACCESS:    1129915  HIT:    1129915  MISS:          0  HIT %:        100  MISS %:          0   MPKI: 0
PSCL5 PREFETCH  REQUESTED:          0  ISSUED:          0  USEFUL:          0  USELESS:          0
PSCL5 USEFUL LOAD PREFETCHES:          0 PREFETCH ISSUED TO LOWER LEVEL:          0  ACCURACY: -nan
PSCL5 TIMELY PREFETCHES:          0 LATE PREFETCHES: 0 DROPPED PREFETCHES: 0
PSCL5 PREFETCHES SAME FILL-ORIGIN LEVEL: 0 DIFFERENT FILL-ORIGIN LEVEL: 0

PSCL4 TOTAL     ACCESS:    1130251  HIT:    1130251  MISS:          0  HIT %:        100  MISS %:          0   MPKI: 0
PSCL4 LOAD TRANSLATION ACCESS:        336  HIT:        336  MISS:          0  HIT %:        100  MISS %:          0   MPKI: 0
PSCL4 TRANSLATION FROM L1D PREFETCHER ACCESS:    1129915  HIT:    1129915  MISS:          0  HIT %:        100  MISS %:          0   MPKI: 0
PSCL4 PREFETCH  REQUESTED:          0  ISSUED:          0  USEFUL:          0  USELESS:          0
PSCL4 USEFUL LOAD PREFETCHES:          0 PREFETCH ISSUED TO LOWER LEVEL:          0  ACCURACY: -nan
PSCL4 TIMELY PREFETCHES:          0 LATE PREFETCHES: 0 DROPPED PREFETCHES: 0
PSCL4 PREFETCHES SAME FILL-ORIGIN LEVEL: 0 DIFFERENT FILL-ORIGIN LEVEL: 0

PSCL3 TOTAL     ACCESS:    1130251  HIT:    1130251  MISS:          0  HIT %:        100  MISS %:          0   MPKI: 0
PSCL3 LOAD TRANSLATION ACCESS:        336  HIT:        336  MISS:          0  HIT %:        100  MISS %:          0   MPKI: 0
PSCL3 TRANSLATION FROM L1D PREFETCHER ACCESS:    1129915  HIT:    1129915  MISS:          0  HIT %:        100  MISS %:          0   MPKI: 0
PSCL3 PREFETCH  REQUESTED:          0  ISSUED:          0  USEFUL:          0  USELESS:          0
PSCL3 USEFUL LOAD PREFETCHES:          0 PREFETCH ISSUED TO LOWER LEVEL:          0  ACCURACY: -nan
PSCL3 TIMELY PREFETCHES:          0 LATE PREFETCHES: 0 DROPPED PREFETCHES: 0
PSCL3 PREFETCHES SAME FILL-ORIGIN LEVEL: 0 DIFFERENT FILL-ORIGIN LEVEL: 0

PSCL2 TOTAL     ACCESS:    1130251  HIT:    1130251  MISS:          0  HIT %:        100  MISS %:          0   MPKI: 0
PSCL2 LOAD TRANSLATION ACCESS:        336  HIT:        336  MISS:          0  HIT %:        100  MISS %:          0   MPKI: 0
PSCL2 TRANSLATION FROM L1D PREFETCHER ACCESS:    1129915  HIT:    1129915  MISS:          0  HIT %:        100  MISS %:          0   MPKI: 0
PSCL2 PREFETCH  REQUESTED:          0  ISSUED:          0  USEFUL:          0  USELESS:          0
PSCL2 USEFUL LOAD PREFETCHES:          0 PREFETCH ISSUED TO LOWER LEVEL:          0  ACCURACY: -nan
PSCL2 TIMELY PREFETCHES:          0 LATE PREFETCHES: 0 DROPPED PREFETCHES: 0
PSCL2 PREFETCHES SAME FILL-ORIGIN LEVEL: 0 DIFFERENT FILL-ORIGIN LEVEL: 0

LLC TOTAL     ACCESS:      22300  HIT:        588  MISS:      21712  HIT %:    2.63677  MISS %:    97.3632   MPKI: 0.10856
LLC LOAD      ACCESS:        301  HIT:          5  MISS:        296  HIT %:    1.66113  MISS %:    98.3389   MPKI: 0.00148
LLC RFO       ACCESS:        585  HIT:          0  MISS:        585  HIT %:          0  MISS %:        100   MPKI: 0.002925
LLC PREFETCH  ACCESS:      20822  HIT:         47  MISS:      20775  HIT %:   0.225723  MISS %:    99.7743   MPKI: 0.103875
LLC WRITEBACK ACCESS:        524  HIT:        516  MISS:          8  HIT %:    98.4733  MISS %:    1.52672   MPKI: 4e-05
LLC LOAD TRANSLATION ACCESS:          2  HIT:          1  MISS:          1  HIT %:         50  MISS %:         50   MPKI: 5e-06
LLC TRANSLATION FROM L1D PREFETCHER ACCESS:         66  HIT:         19  MISS:         47  HIT %:    28.7879  MISS %:    71.2121   MPKI: 0.000235
LLC PREFETCH  REQUESTED:          0  ISSUED:          0  USEFUL:         17  USELESS:        319
LLC USEFUL LOAD PREFETCHES:         17 PREFETCH ISSUED TO LOWER LEVEL:      20775  ACCURACY: 0.0818291
LLC TIMELY PREFETCHES:         17 LATE PREFETCHES: 0 DROPPED PREFETCHES: 0
LLC PREFETCHES SAME FILL-ORIGIN LEVEL: 0 DIFFERENT FILL-ORIGIN LEVEL: 0
LLC AVERAGE MISS LATENCY: 120.011 cycles
LLC RQ	ACCESS:        954	FORWARD:          0	MERGED:          0	TO_CACHE:        954
LLC WQ	ACCESS:        524	FORWARD:          0	MERGED:          0	TO_CACHE:        524
LLC PQ	ACCESS:      20822	FORWARD:          0	MERGED:          0	TO_CACHE:      20822

LLC Dense regions hint to LLC: 0

RAW hits: 89209
Loads Generated: 59121657
Loads sent to L1D: 59032447
Stores Generated: 6342012
Stores sent to L1D: 6342012
Major fault: 0 Minor fault: 508
Allocated PAGES: 508

DRAM Statistics
 CHANNEL 0
 RQ ROW_BUFFER_HIT:      10840  ROW_BUFFER_MISS:      10864
 DBUS_CONGESTED:          0
 WQ ROW_BUFFER_HIT:          0  ROW_BUFFER_MISS:          0  FULL:          0

 AVG_CONGESTED_CYCLE: -
 All warmup complete: 2
Channel 0 Bank busy for read cycles: 0
Channel 0 Bank busy for write cycles: 0
Channel 0
Rank 0
0banks busy for read cycles: 196267189
0banks busy for write cycles: 0
1banks busy for read cycles: 2153520
1banks busy for write cycles: 0
2banks busy for read cycles: 5390
2banks busy for write cycles: 0
3banks busy for read cycles: 323
3banks busy for write cycles: 0
4banks busy for read cycles: 244
4banks busy for write cycles: 0
5banks busy for read cycles: 522
5banks busy for write cycles: 0
6banks busy for read cycles: 405
6banks busy for write cycles: 0
7banks busy for read cycles: 45
7banks busy for write cycles: 0
8banks busy for read cycles: 0
8banks busy for write cycles: 0

CPU 0 Branch Prediction Accuracy: 99.9877% MPKI: 0.023385 Average ROB Occupancy at Mispredict: 28.2399
Branch types
NOT_BRANCH: 161296206 80.6481%
BRANCH_DIRECT_JUMP: 205772 0.102886%
BRANCH_INDIRECT: 0 0%
BRANCH_CONDITIONAL: 38104823 19.0524%
BRANCH_DIRECT_CALL: 196434 0.098217%
BRANCH_INDIRECT_CALL: 0 0%
BRANCH_RETURN: 196434 0.098217%
BRANCH_OTHER: 0 0%

DRAM PAGES: 1048576
Allocated PAGES: 508
