526208 bits of metadata so far, 405638 left out of 526336 total budget
table size is 13521 bits, 2253 entries for 5 bit, 1931 entries for 6 bit
526208 total bits (64.23KB)

*** ChampSim Multicore Out-of-Order Simulator ***

Warmup Instructions: 50000000
Simulation Instructions: 200000000
Number of CPUs: 1
LLC sets: 2048
LLC ways: 16
Off-chip DRAM Size: 4096 MB Channels: 1 Width: 64-bit Data Rate: 6400 MT/s
argv[0]: ./ChampSim/Berti/bin/multiperspective_perceptron-no-vberti-no-no-no-no-no-lru-lru-lru-srrip-drrip-lru-lru-lru-1core-no
argv[1]: -warmup_instructions
argv[2]: 50000000
argv[3]: -simulation_instructions
argv[4]: 200000000
argv[5]: -traces
argv[6]: traces/spec2k17_ten/638.imagick_s-824B.champsimtrace.xz
CPU 0 runs traces/spec2k17_ten/638.imagick_s-824B.champsimtrace.xz
.xz
CPU 0 Multiperspective perceptron branch predictor
BTB has LRU replacement policy
ITLB has LRU replacement policy
DTLB has LRU replacement policy
STLB has LRU replacement policy
L1I has LRU replacement policy
History Sets: 8
History Ways: 16
BERTI Size: 16
BERTI Stride Size: 16
L1D has LRU replacement policy
Initialize SRRIP state for L2C
Initialize DRRIP state for LLC
Heartbeat CPU 0 instructions: 10000001 cycles: 3090405 heartbeat IPC: 3.23582 cumulative IPC: 3.23582 (Simulation time: 0 hr 4 min 32 sec) 
Heartbeat CPU 0 instructions: 20000003 cycles: 6180331 heartbeat IPC: 3.23632 cumulative IPC: 3.23607 (Simulation time: 0 hr 8 min 53 sec) 
Heartbeat CPU 0 instructions: 30000002 cycles: 9270918 heartbeat IPC: 3.23563 cumulative IPC: 3.23593 (Simulation time: 0 hr 14 min 55 sec) 
Heartbeat CPU 0 instructions: 40000002 cycles: 12361605 heartbeat IPC: 3.23553 cumulative IPC: 3.23583 (Simulation time: 0 hr 20 min 22 sec) 
Heartbeat CPU 0 instructions: 50000003 cycles: 15451324 heartbeat IPC: 3.23654 cumulative IPC: 3.23597 (Simulation time: 0 hr 25 min 3 sec) 

Warmup complete CPU 0 instructions: 50000003 cycles: 15451324 (Simulation time: 0 hr 25 min 3 sec) 

Heartbeat CPU 0 instructions: 60000000 cycles: 31757923 heartbeat IPC: 0.613248 cumulative IPC: 0.613248 (Simulation time: 0 hr 30 min 27 sec) 
Heartbeat CPU 0 instructions: 70000000 cycles: 47926152 heartbeat IPC: 0.618497 cumulative IPC: 0.615862 (Simulation time: 0 hr 34 min 34 sec) 
Heartbeat CPU 0 instructions: 80000000 cycles: 64236812 heartbeat IPC: 0.613096 cumulative IPC: 0.614937 (Simulation time: 0 hr 39 min 30 sec) 
Heartbeat CPU 0 instructions: 90000000 cycles: 80431114 heartbeat IPC: 0.617501 cumulative IPC: 0.615576 (Simulation time: 0 hr 44 min 8 sec) 
Heartbeat CPU 0 instructions: 100000001 cycles: 96722476 heartbeat IPC: 0.613822 cumulative IPC: 0.615224 (Simulation time: 0 hr 48 min 41 sec) 
Heartbeat CPU 0 instructions: 110000000 cycles: 112913920 heartbeat IPC: 0.61761 cumulative IPC: 0.615621 (Simulation time: 0 hr 53 min 25 sec) 
Heartbeat CPU 0 instructions: 120000000 cycles: 129203460 heartbeat IPC: 0.613891 cumulative IPC: 0.615373 (Simulation time: 0 hr 58 min 13 sec) 
Heartbeat CPU 0 instructions: 130000000 cycles: 145445194 heartbeat IPC: 0.615698 cumulative IPC: 0.615414 (Simulation time: 1 hr 2 min 53 sec) 
Heartbeat CPU 0 instructions: 140000000 cycles: 161682385 heartbeat IPC: 0.61587 cumulative IPC: 0.615464 (Simulation time: 1 hr 7 min 47 sec) 
Heartbeat CPU 0 instructions: 150000001 cycles: 177985772 heartbeat IPC: 0.61337 cumulative IPC: 0.615254 (Simulation time: 1 hr 12 min 21 sec) 
Heartbeat CPU 0 instructions: 160000000 cycles: 194163711 heartbeat IPC: 0.618126 cumulative IPC: 0.615514 (Simulation time: 1 hr 17 min 2 sec) 
Heartbeat CPU 0 instructions: 170000000 cycles: 210475683 heartbeat IPC: 0.613047 cumulative IPC: 0.615308 (Simulation time: 1 hr 21 min 34 sec) 
Heartbeat CPU 0 instructions: 180000000 cycles: 226648279 heartbeat IPC: 0.61833 cumulative IPC: 0.615539 (Simulation time: 1 hr 25 min 54 sec) 
Heartbeat CPU 0 instructions: 190000001 cycles: 242952258 heartbeat IPC: 0.613347 cumulative IPC: 0.615382 (Simulation time: 1 hr 29 min 44 sec) 
Heartbeat CPU 0 instructions: 200000002 cycles: 259141302 heartbeat IPC: 0.617702 cumulative IPC: 0.615536 (Simulation time: 1 hr 33 min 11 sec) 
Heartbeat CPU 0 instructions: 210000000 cycles: 275439645 heartbeat IPC: 0.613559 cumulative IPC: 0.615412 (Simulation time: 1 hr 36 min 16 sec) 
Heartbeat CPU 0 instructions: 220000000 cycles: 291630289 heartbeat IPC: 0.617641 cumulative IPC: 0.615543 (Simulation time: 1 hr 39 min 1 sec) 
Heartbeat CPU 0 instructions: 230000000 cycles: 307917688 heartbeat IPC: 0.613972 cumulative IPC: 0.615455 (Simulation time: 1 hr 41 min 19 sec) 
Heartbeat CPU 0 instructions: 240000001 cycles: 324136971 heartbeat IPC: 0.61655 cumulative IPC: 0.615513 (Simulation time: 1 hr 43 min 49 sec) 
Heartbeat CPU 0 instructions: 250000001 cycles: 340392562 heartbeat IPC: 0.615173 cumulative IPC: 0.615496 (Simulation time: 1 hr 46 min 16 sec) 
Finished CPU 0 instructions: 200000002 cycles: 324941239 cumulative IPC: 0.615496 (Simulation time: 1 hr 46 min 16 sec) 

ChampSim completed all CPUs

Region of Interest Statistics

CPU 0 cumulative IPC: 0.615496 instructions: 200000002 cycles: 324941239
ITLB TOTAL     ACCESS:   30805997  HIT:   30805997  MISS:          0  HIT %:        100  MISS %:          0   MPKI: 0
ITLB LOAD TRANSLATION ACCESS:   30805997  HIT:   30805997  MISS:          0  HIT %:        100  MISS %:          0   MPKI: 0
ITLB PREFETCH  REQUESTED:          0  ISSUED:          0  USEFUL:          0  USELESS:          0
ITLB USEFUL LOAD PREFETCHES:          0 PREFETCH ISSUED TO LOWER LEVEL:          0  ACCURACY: -nan
ITLB TIMELY PREFETCHES:          0 LATE PREFETCHES: 0 DROPPED PREFETCHES: 0
ITLB PREFETCHES SAME FILL-ORIGIN LEVEL: 0 DIFFERENT FILL-ORIGIN LEVEL: 0
ITLB AVERAGE MISS LATENCY: -nan cycles
ITLB RQ	ACCESS:   35743026	FORWARD:          0	MERGED:    4937030	TO_CACHE:   30805996

DTLB TOTAL     ACCESS:   29752915  HIT:   29752252  MISS:        663  HIT %:    99.9978  MISS %: 0.00222835   MPKI: 0.003315
DTLB LOAD TRANSLATION ACCESS:   29752915  HIT:   29752252  MISS:        663  HIT %:    99.9978  MISS %: 0.00222835   MPKI: 0.003315
DTLB PREFETCH  REQUESTED:          0  ISSUED:          0  USEFUL:          0  USELESS:          0
DTLB USEFUL LOAD PREFETCHES:          0 PREFETCH ISSUED TO LOWER LEVEL:          0  ACCURACY: -nan
DTLB TIMELY PREFETCHES:          0 LATE PREFETCHES: 0 DROPPED PREFETCHES: 0
DTLB PREFETCHES SAME FILL-ORIGIN LEVEL: 0 DIFFERENT FILL-ORIGIN LEVEL: 0
DTLB AVERAGE MISS LATENCY: 120 cycles
DTLB RQ	ACCESS:   34291919	FORWARD:          0	MERGED:    4539004	TO_CACHE:   29752915

STLB TOTAL     ACCESS:     338846  HIT:     338183  MISS:        663  HIT %:    99.8043  MISS %:   0.195664   MPKI: 0.003315
STLB LOAD TRANSLATION ACCESS:        663  HIT:          0  MISS:        663  HIT %:          0  MISS %:        100   MPKI: 0.003315
STLB TRANSLATION FROM L1D PREFETCHER ACCESS:     338183  HIT:     338183  MISS:          0  HIT %:        100  MISS %:          0   MPKI: 0
STLB PREFETCH  REQUESTED:          0  ISSUED:          0  USEFUL:          0  USELESS:          0
STLB USEFUL LOAD PREFETCHES:          0 PREFETCH ISSUED TO LOWER LEVEL:          0  ACCURACY: -nan
STLB TIMELY PREFETCHES:          0 LATE PREFETCHES: 0 DROPPED PREFETCHES: 62553
STLB PREFETCHES SAME FILL-ORIGIN LEVEL: 0 DIFFERENT FILL-ORIGIN LEVEL: 0
STLB AVERAGE MISS LATENCY: 111 cycles
STLB RQ	ACCESS:    2824147	FORWARD:          0	MERGED:    2422748	TO_CACHE:     401399

STLB Hit, L1D data hit: 0
STLB Hit, L2C data hit: 0
STLB Hit, LLC data hit: 0
STLB Hit, LLC data miss: 0
STLB STLB hints to L2: 0
L1D TOTAL     ACCESS:   36294057  HIT:   36251104  MISS:      42953  HIT %:    99.8817  MISS %:   0.118347   MPKI: 0.214765
L1D LOAD      ACCESS:   24281860  HIT:   24280826  MISS:       1034  HIT %:    99.9957  MISS %: 0.00425832   MPKI: 0.00517
L1D RFO       ACCESS:   10009895  HIT:   10009770  MISS:        125  HIT %:    99.9988  MISS %: 0.00124876   MPKI: 0.000625
L1D PREFETCH  ACCESS:    2002302  HIT:    1960508  MISS:      41794  HIT %:    97.9127  MISS %:     2.0873   MPKI: 0.20897
L1D PREFETCH  REQUESTED:    5646968  ISSUED:    5646968  USEFUL:      41791  USELESS:          0
L1D USEFUL LOAD PREFETCHES:      41791 PREFETCH ISSUED TO LOWER LEVEL:     609473  ACCURACY: 6.85691
L1D TIMELY PREFETCHES:      41791 LATE PREFETCHES: 0 DROPPED PREFETCHES: 253505
L1D PREFETCHES SAME FILL-ORIGIN LEVEL: 41794 DIFFERENT FILL-ORIGIN LEVEL: 567679
L1D AVERAGE MISS LATENCY: 31.6751 cycles
L1D RQ	ACCESS:   36360345	FORWARD:          0	MERGED:   10183831	TO_CACHE:   24281862
L1D WQ	ACCESS:   10010086	FORWARD:    1894652	MERGED:         29	TO_CACHE:   10010057
L1D PQ	ACCESS:    2823484	FORWARD:          0	MERGED:          0	TO_CACHE:    2823484

L1D UNIQUE REGIONS ACCESSED: 0
L1D REGIONS CONFLICTS: 0
L1D Cross Page Prefetch Requests: 332948
L1D Same Page Prefetch Requests: 3441721
L1D ROI Sum of L1D PQ occupancy: 47109253
L1D PREFETCHES PUSHED FROM L2C: 0
L1I TOTAL     ACCESS:   35743027  HIT:   35743027  MISS:          0  HIT %:        100  MISS %:          0   MPKI: 0
L1I LOAD      ACCESS:   35743027  HIT:   35743027  MISS:          0  HIT %:        100  MISS %:          0   MPKI: 0
L1I PREFETCH  REQUESTED:          0  ISSUED:          0  USEFUL:          0  USELESS:          0
L1I USEFUL LOAD PREFETCHES:          0 PREFETCH ISSUED TO LOWER LEVEL:          0  ACCURACY: -nan
L1I TIMELY PREFETCHES:          0 LATE PREFETCHES: 0 DROPPED PREFETCHES: 0
L1I PREFETCHES SAME FILL-ORIGIN LEVEL: 0 DIFFERENT FILL-ORIGIN LEVEL: 0
L1I AVERAGE MISS LATENCY: -nan cycles
L1I RQ	ACCESS:   52318907	FORWARD:          0	MERGED:   16575881	TO_CACHE:   35743026

BTB TOTAL     ACCESS:   19765215  HIT:   18776653  MISS:     988562  HIT %:    94.9985  MISS %:    5.00152   MPKI: 4.94281
BTB BRANCH_DIRECT_JUMP	ACCESS:    1659519  HIT:    1659506  MISS:         13
BTB BRANCH_INDIRECT	ACCESS:     339627  HIT:     339626  MISS:          1
BTB BRANCH_CONDITIONAL	ACCESS:    8270195  HIT:    8270164  MISS:         31
BTB BRANCH_DIRECT_CALL	ACCESS:    4747936  HIT:    4747921  MISS:         15
BTB BRANCH_INDIRECT_CALL	ACCESS:          0  HIT:          0  MISS:          0
BTB BRANCH_RETURN	ACCESS:    4747938  HIT:    3759436  MISS:     988502
BTB BRANCH_OTHER ACCESS:          0  HIT:          0  MISS:          0

L2C TOTAL     ACCESS:     716501  HIT:     673869  MISS:      42632  HIT %:      94.05  MISS %:    5.95003   MPKI: 0.21316
L2C LOAD      ACCESS:       1034  HIT:        364  MISS:        670  HIT %:    35.2031  MISS %:    64.7969   MPKI: 0.00335
L2C DATA LOAD MPKI: 0.00335
L2C INSTRUCTION LOAD MPKI: 0
L2C RFO       ACCESS:        125  HIT:        125  MISS:          0  HIT %:        100  MISS %:          0   MPKI: 0
L2C PREFETCH  ACCESS:     609452  HIT:     567659  MISS:      41793  HIT %:    93.1425  MISS %:    6.85747   MPKI: 0.208965
L2C DATA PREFETCH MPKI: 0.208965
L2C INSTRUCTION PREFETCH MPKI: 0
L2C WRITEBACK ACCESS:      42674  HIT:      42589  MISS:         85  HIT %:    99.8008  MISS %:   0.199185   MPKI: 0.000425
L2C LOAD TRANSLATION ACCESS:        663  HIT:        663  MISS:          0  HIT %:        100  MISS %:          0   MPKI: 0
L2C TRANSLATION FROM L1D PREFETCHER ACCESS:      62553  HIT:      62469  MISS:         84  HIT %:    99.8657  MISS %:   0.134286   MPKI: 0.00042
L2C PREFETCH  REQUESTED:          0  ISSUED:          0  USEFUL:         84  USELESS:      41782
L2C USEFUL LOAD PREFETCHES:         84 PREFETCH ISSUED TO LOWER LEVEL:      41793  ACCURACY: 0.200991
L2C TIMELY PREFETCHES:         84 LATE PREFETCHES: 0 DROPPED PREFETCHES: 0
L2C PREFETCHES SAME FILL-ORIGIN LEVEL: 38114 DIFFERENT FILL-ORIGIN LEVEL: 0
L2C AVERAGE MISS LATENCY: 150.481 cycles
L2C RQ	ACCESS:      64375	FORWARD:          0	MERGED:          0	TO_CACHE:      64375
L2C WQ	ACCESS:      42674	FORWARD:          0	MERGED:          0	TO_CACHE:      42674
L2C PQ	ACCESS:     609473	FORWARD:          0	MERGED:          0	TO_CACHE:     609473

L2C Instructions Evicting Data 0
L2C Translations Evicting Data 84
L2C Data Evicting Data 42381
L2C Instructions Evicting Instructions 0
L2C Translations Evicting Instructions 0
L2C Data Evicting Instructions 0
L2C Instructions Evicting Translations 0
L2C Translations Evicting Translations 0
L2C Data Evicting Translations 82
L2C Dense regions hint from L2: 0
PSCL5 TOTAL     ACCESS:      63216  HIT:      63216  MISS:          0  HIT %:        100  MISS %:          0   MPKI: 0
PSCL5 LOAD TRANSLATION ACCESS:        663  HIT:        663  MISS:          0  HIT %:        100  MISS %:          0   MPKI: 0
PSCL5 TRANSLATION FROM L1D PREFETCHER ACCESS:      62553  HIT:      62553  MISS:          0  HIT %:        100  MISS %:          0   MPKI: 0
PSCL5 PREFETCH  REQUESTED:          0  ISSUED:          0  USEFUL:          0  USELESS:          0
PSCL5 USEFUL LOAD PREFETCHES:          0 PREFETCH ISSUED TO LOWER LEVEL:          0  ACCURACY: -nan
PSCL5 TIMELY PREFETCHES:          0 LATE PREFETCHES: 0 DROPPED PREFETCHES: 0
PSCL5 PREFETCHES SAME FILL-ORIGIN LEVEL: 0 DIFFERENT FILL-ORIGIN LEVEL: 0

PSCL4 TOTAL     ACCESS:      63216  HIT:      63216  MISS:          0  HIT %:        100  MISS %:          0   MPKI: 0
PSCL4 LOAD TRANSLATION ACCESS:        663  HIT:        663  MISS:          0  HIT %:        100  MISS %:          0   MPKI: 0
PSCL4 TRANSLATION FROM L1D PREFETCHER ACCESS:      62553  HIT:      62553  MISS:          0  HIT %:        100  MISS %:          0   MPKI: 0
PSCL4 PREFETCH  REQUESTED:          0  ISSUED:          0  USEFUL:          0  USELESS:          0
PSCL4 USEFUL LOAD PREFETCHES:          0 PREFETCH ISSUED TO LOWER LEVEL:          0  ACCURACY: -nan
PSCL4 TIMELY PREFETCHES:          0 LATE PREFETCHES: 0 DROPPED PREFETCHES: 0
PSCL4 PREFETCHES SAME FILL-ORIGIN LEVEL: 0 DIFFERENT FILL-ORIGIN LEVEL: 0

PSCL3 TOTAL     ACCESS:      63216  HIT:      63216  MISS:          0  HIT %:        100  MISS %:          0   MPKI: 0
PSCL3 LOAD TRANSLATION ACCESS:        663  HIT:        663  MISS:          0  HIT %:        100  MISS %:          0   MPKI: 0
PSCL3 TRANSLATION FROM L1D PREFETCHER ACCESS:      62553  HIT:      62553  MISS:          0  HIT %:        100  MISS %:          0   MPKI: 0
PSCL3 PREFETCH  REQUESTED:          0  ISSUED:          0  USEFUL:          0  USELESS:          0
PSCL3 USEFUL LOAD PREFETCHES:          0 PREFETCH ISSUED TO LOWER LEVEL:          0  ACCURACY: -nan
PSCL3 TIMELY PREFETCHES:          0 LATE PREFETCHES: 0 DROPPED PREFETCHES: 0
PSCL3 PREFETCHES SAME FILL-ORIGIN LEVEL: 0 DIFFERENT FILL-ORIGIN LEVEL: 0

PSCL2 TOTAL     ACCESS:      63128  HIT:      63127  MISS:          1  HIT %:    99.9984  MISS %: 0.00158408   MPKI: 5e-06
PSCL2 LOAD TRANSLATION ACCESS:        663  HIT:        662  MISS:          1  HIT %:    99.8492  MISS %:    0.15083   MPKI: 5e-06
PSCL2 TRANSLATION FROM L1D PREFETCHER ACCESS:      62465  HIT:      62465  MISS:          0  HIT %:        100  MISS %:          0   MPKI: 0
PSCL2 PREFETCH  REQUESTED:          0  ISSUED:          0  USEFUL:          0  USELESS:          0
PSCL2 USEFUL LOAD PREFETCHES:          0 PREFETCH ISSUED TO LOWER LEVEL:          0  ACCURACY: -nan
PSCL2 TIMELY PREFETCHES:          0 LATE PREFETCHES: 0 DROPPED PREFETCHES: 0
PSCL2 PREFETCHES SAME FILL-ORIGIN LEVEL: 0 DIFFERENT FILL-ORIGIN LEVEL: 0

LLC TOTAL     ACCESS:      85007  HIT:      41831  MISS:      43176  HIT %:    49.2089  MISS %:    50.7911   MPKI: 0.21588
LLC LOAD      ACCESS:        670  HIT:          4  MISS:        666  HIT %:   0.597015  MISS %:     99.403   MPKI: 0.00333
LLC PREFETCH  ACCESS:      41793  HIT:          0  MISS:      41793  HIT %:          0  MISS %:        100   MPKI: 0.208965
LLC WRITEBACK ACCESS:      42460  HIT:      41827  MISS:        633  HIT %:    98.5092  MISS %:    1.49081   MPKI: 0.003165
LLC TRANSLATION FROM L1D PREFETCHER ACCESS:         84  HIT:          0  MISS:         84  HIT %:          0  MISS %:        100   MPKI: 0.00042
LLC PREFETCH  REQUESTED:          0  ISSUED:          0  USEFUL:          0  USELESS:      20440
LLC USEFUL LOAD PREFETCHES:          0 PREFETCH ISSUED TO LOWER LEVEL:      41793  ACCURACY: 0
LLC TIMELY PREFETCHES:          0 LATE PREFETCHES: 0 DROPPED PREFETCHES: 0
LLC PREFETCHES SAME FILL-ORIGIN LEVEL: 0 DIFFERENT FILL-ORIGIN LEVEL: 0
LLC AVERAGE MISS LATENCY: 119.022 cycles
LLC RQ	ACCESS:        754	FORWARD:          0	MERGED:          0	TO_CACHE:        754
LLC WQ	ACCESS:      42460	FORWARD:          0	MERGED:          0	TO_CACHE:      42460
LLC PQ	ACCESS:      41793	FORWARD:          0	MERGED:          0	TO_CACHE:      41793

LLC Dense regions hint to LLC: 0

RAW hits: 2962317
Loads Generated: 39322662
Loads sent to L1D: 36360345
Stores Generated: 10010085
Stores sent to L1D: 10010086
Major fault: 0 Minor fault: 870
Allocated PAGES: 870

DRAM Statistics
 CHANNEL 0
 RQ ROW_BUFFER_HIT:      22865  ROW_BUFFER_MISS:      19678
 DBUS_CONGESTED:          0
 WQ ROW_BUFFER_HIT:        877  ROW_BUFFER_MISS:      19400  FULL:          0

 AVG_CONGESTED_CYCLE: -
 All warmup complete: 2
Channel 0 Bank busy for read cycles: 0
Channel 0 Bank busy for write cycles: 0
Channel 0
Rank 0
0banks busy for read cycles: 319008343
0banks busy for write cycles: 16427
1banks busy for read cycles: 3097034
1banks busy for write cycles: 2252951
2banks busy for read cycles: 214676
2banks busy for write cycles: 157440
3banks busy for read cycles: 44354
3banks busy for write cycles: 26502
4banks busy for read cycles: 6804
4banks busy for write cycles: 2714
5banks busy for read cycles: 9592
5banks busy for write cycles: 1033
6banks busy for read cycles: 43405
6banks busy for write cycles: 36340
7banks busy for read cycles: 9504
7banks busy for write cycles: 6959
8banks busy for read cycles: 4171
8banks busy for write cycles: 2991

CPU 0 Branch Prediction Accuracy: 99.9159% MPKI: 0.08735 Average ROB Occupancy at Mispredict: 36.2236
Branch types
NOT_BRANCH: 167735285 83.8676%
BRANCH_DIRECT_JUMP: 1659519 0.829759%
BRANCH_INDIRECT: 339627 0.169813%
BRANCH_CONDITIONAL: 20769341 10.3847%
BRANCH_DIRECT_CALL: 4747936 2.37397%
BRANCH_INDIRECT_CALL: 0 0%
BRANCH_RETURN: 4747938 2.37397%
BRANCH_OTHER: 0 0%

DRAM PAGES: 1048576
Allocated PAGES: 870
