526208 bits of metadata so far, 405638 left out of 526336 total budget
table size is 13521 bits, 2253 entries for 5 bit, 1931 entries for 6 bit
526208 total bits (64.23KB)

*** ChampSim Multicore Out-of-Order Simulator ***

Warmup Instructions: 50000000
Simulation Instructions: 200000000
Number of CPUs: 1
LLC sets: 2048
LLC ways: 16
Off-chip DRAM Size: 4096 MB Channels: 1 Width: 64-bit Data Rate: 6400 MT/s
argv[0]: ./ChampSim/Berti/bin/multiperspective_perceptron-no-vberti-no-no-no-no-no-lru-lru-lru-srrip-drrip-lru-lru-lru-1core-no
argv[1]: -warmup_instructions
argv[2]: 50000000
argv[3]: -simulation_instructions
argv[4]: 200000000
argv[5]: -traces
argv[6]: traces/spec2k17_ten/625.x264_s-18B.champsimtrace.xz
CPU 0 runs traces/spec2k17_ten/625.x264_s-18B.champsimtrace.xz
.xz
CPU 0 Multiperspective perceptron branch predictor
BTB has LRU replacement policy
ITLB has LRU replacement policy
DTLB has LRU replacement policy
STLB has LRU replacement policy
L1I has LRU replacement policy
History Sets: 8
History Ways: 16
BERTI Size: 16
BERTI Stride Size: 16
L1D has LRU replacement policy
Initialize SRRIP state for L2C
Initialize DRRIP state for LLC
Heartbeat CPU 0 instructions: 10000001 cycles: 2708571 heartbeat IPC: 3.69198 cumulative IPC: 3.69198 (Simulation time: 0 hr 5 min 23 sec) 
Heartbeat CPU 0 instructions: 20000000 cycles: 5422060 heartbeat IPC: 3.68529 cumulative IPC: 3.68863 (Simulation time: 0 hr 11 min 16 sec) 
Heartbeat CPU 0 instructions: 30000000 cycles: 8133396 heartbeat IPC: 3.68822 cumulative IPC: 3.6885 (Simulation time: 0 hr 13 min 7 sec) 
Heartbeat CPU 0 instructions: 40000002 cycles: 10841662 heartbeat IPC: 3.6924 cumulative IPC: 3.68947 (Simulation time: 0 hr 14 min 31 sec) 
Heartbeat CPU 0 instructions: 50000002 cycles: 13548306 heartbeat IPC: 3.69461 cumulative IPC: 3.6905 (Simulation time: 0 hr 15 min 53 sec) 

Warmup complete CPU 0 instructions: 50000002 cycles: 13548306 (Simulation time: 0 hr 15 min 53 sec) 

Heartbeat CPU 0 instructions: 60000003 cycles: 26317523 heartbeat IPC: 0.783133 cumulative IPC: 0.783133 (Simulation time: 0 hr 19 min 59 sec) 
Heartbeat CPU 0 instructions: 70000002 cycles: 39137462 heartbeat IPC: 0.780035 cumulative IPC: 0.781581 (Simulation time: 0 hr 23 min 25 sec) 
Heartbeat CPU 0 instructions: 80000001 cycles: 51988229 heartbeat IPC: 0.778164 cumulative IPC: 0.780439 (Simulation time: 0 hr 26 min 4 sec) 
Heartbeat CPU 0 instructions: 90000001 cycles: 64844205 heartbeat IPC: 0.777848 cumulative IPC: 0.779789 (Simulation time: 0 hr 29 min 57 sec) 
Heartbeat CPU 0 instructions: 100000000 cycles: 77634988 heartbeat IPC: 0.781813 cumulative IPC: 0.780193 (Simulation time: 0 hr 33 min 11 sec) 
Heartbeat CPU 0 instructions: 110000000 cycles: 90416458 heartbeat IPC: 0.782383 cumulative IPC: 0.780557 (Simulation time: 0 hr 36 min 54 sec) 
Heartbeat CPU 0 instructions: 120000000 cycles: 103239236 heartbeat IPC: 0.779862 cumulative IPC: 0.780458 (Simulation time: 0 hr 40 min 24 sec) 
Heartbeat CPU 0 instructions: 130000000 cycles: 116147423 heartbeat IPC: 0.774702 cumulative IPC: 0.779734 (Simulation time: 0 hr 43 min 48 sec) 
Heartbeat CPU 0 instructions: 140000000 cycles: 127781363 heartbeat IPC: 0.859554 cumulative IPC: 0.787863 (Simulation time: 0 hr 50 min 20 sec) 
Heartbeat CPU 0 instructions: 150000002 cycles: 140729101 heartbeat IPC: 0.772336 cumulative IPC: 0.786282 (Simulation time: 0 hr 54 min 38 sec) 
Heartbeat CPU 0 instructions: 160000000 cycles: 153631906 heartbeat IPC: 0.775025 cumulative IPC: 0.785245 (Simulation time: 0 hr 57 min 59 sec) 
Heartbeat CPU 0 instructions: 170000000 cycles: 166779944 heartbeat IPC: 0.76057 cumulative IPC: 0.783128 (Simulation time: 1 hr 1 min 25 sec) 
Heartbeat CPU 0 instructions: 180000000 cycles: 179542997 heartbeat IPC: 0.783512 cumulative IPC: 0.783158 (Simulation time: 1 hr 4 min 44 sec) 
Heartbeat CPU 0 instructions: 190000000 cycles: 192327022 heartbeat IPC: 0.782226 cumulative IPC: 0.783091 (Simulation time: 1 hr 8 min 31 sec) 
Heartbeat CPU 0 instructions: 200000000 cycles: 205503250 heartbeat IPC: 0.758943 cumulative IPC: 0.781433 (Simulation time: 1 hr 12 min 18 sec) 
Heartbeat CPU 0 instructions: 210000001 cycles: 218262406 heartbeat IPC: 0.783751 cumulative IPC: 0.781578 (Simulation time: 1 hr 15 min 38 sec) 
Heartbeat CPU 0 instructions: 220000000 cycles: 231204396 heartbeat IPC: 0.772679 cumulative IPC: 0.781049 (Simulation time: 1 hr 19 min 1 sec) 
Heartbeat CPU 0 instructions: 230000001 cycles: 244225316 heartbeat IPC: 0.767995 cumulative IPC: 0.780312 (Simulation time: 1 hr 22 min 26 sec) 
Heartbeat CPU 0 instructions: 240000000 cycles: 257002906 heartbeat IPC: 0.78262 cumulative IPC: 0.780433 (Simulation time: 1 hr 25 min 34 sec) 
Heartbeat CPU 0 instructions: 250000002 cycles: 270093727 heartbeat IPC: 0.763894 cumulative IPC: 0.779589 (Simulation time: 1 hr 28 min 33 sec) 
Finished CPU 0 instructions: 200000000 cycles: 256545421 cumulative IPC: 0.779589 (Simulation time: 1 hr 28 min 33 sec) 

ChampSim completed all CPUs

Region of Interest Statistics

CPU 0 cumulative IPC: 0.779589 instructions: 200000000 cycles: 256545421
ITLB TOTAL     ACCESS:   28406080  HIT:   28405203  MISS:        877  HIT %:    99.9969  MISS %: 0.00308737   MPKI: 0.004385
ITLB LOAD TRANSLATION ACCESS:   28406080  HIT:   28405203  MISS:        877  HIT %:    99.9969  MISS %: 0.00308737   MPKI: 0.004385
ITLB PREFETCH  REQUESTED:          0  ISSUED:          0  USEFUL:          0  USELESS:          0
ITLB USEFUL LOAD PREFETCHES:          0 PREFETCH ISSUED TO LOWER LEVEL:          0  ACCURACY: -nan
ITLB TIMELY PREFETCHES:          0 LATE PREFETCHES: 0 DROPPED PREFETCHES: 0
ITLB PREFETCHES SAME FILL-ORIGIN LEVEL: 0 DIFFERENT FILL-ORIGIN LEVEL: 0
ITLB AVERAGE MISS LATENCY: 23.073 cycles
ITLB RQ	ACCESS:   35851776	FORWARD:          0	MERGED:    7445516	TO_CACHE:   28406260

DTLB TOTAL     ACCESS:   28236671  HIT:   28106189  MISS:     130482  HIT %:    99.5379  MISS %:   0.462101   MPKI: 0.65241
DTLB LOAD TRANSLATION ACCESS:   28236671  HIT:   28106189  MISS:     130482  HIT %:    99.5379  MISS %:   0.462101   MPKI: 0.65241
DTLB PREFETCH  REQUESTED:          0  ISSUED:          0  USEFUL:          0  USELESS:          0
DTLB USEFUL LOAD PREFETCHES:          0 PREFETCH ISSUED TO LOWER LEVEL:          0  ACCURACY: -nan
DTLB TIMELY PREFETCHES:          0 LATE PREFETCHES: 0 DROPPED PREFETCHES: 0
DTLB PREFETCHES SAME FILL-ORIGIN LEVEL: 0 DIFFERENT FILL-ORIGIN LEVEL: 0
DTLB AVERAGE MISS LATENCY: 11.8899 cycles
DTLB RQ	ACCESS:   34483024	FORWARD:          0	MERGED:    6214574	TO_CACHE:   28268450

STLB TOTAL     ACCESS:    4598014  HIT:    4595844  MISS:       2170  HIT %:    99.9528  MISS %:  0.0471943   MPKI: 0.01085
STLB LOAD TRANSLATION ACCESS:     131359  HIT:     129190  MISS:       2169  HIT %:    98.3488  MISS %:     1.6512   MPKI: 0.010845
STLB TRANSLATION FROM L1D PREFETCHER ACCESS:    4466655  HIT:    4466654  MISS:          1  HIT %:        100  MISS %: 2.23881e-05   MPKI: 5e-06
STLB PREFETCH  REQUESTED:          0  ISSUED:          0  USEFUL:          1  USELESS:          0
STLB USEFUL LOAD PREFETCHES:          1 PREFETCH ISSUED TO LOWER LEVEL:          0  ACCURACY: inf
STLB TIMELY PREFETCHES:          1 LATE PREFETCHES: 81 DROPPED PREFETCHES: 184748
STLB PREFETCHES SAME FILL-ORIGIN LEVEL: 0 DIFFERENT FILL-ORIGIN LEVEL: 0
STLB AVERAGE MISS LATENCY: 175.977 cycles
STLB RQ	ACCESS:   16563591	FORWARD:          0	MERGED:   11774657	TO_CACHE:    4788934

STLB Hit, L1D data hit: 0
STLB Hit, L2C data hit: 0
STLB Hit, LLC data hit: 0
STLB Hit, LLC data miss: 0
STLB STLB hints to L2: 0
L1D TOTAL     ACCESS:   48745538  HIT:   48541711  MISS:     203827  HIT %:    99.5819  MISS %:   0.418145   MPKI: 1.01913
L1D LOAD      ACCESS:   21259150  HIT:   21166060  MISS:      93090  HIT %:    99.5621  MISS %:   0.437882   MPKI: 0.46545
L1D RFO       ACCESS:   13117952  HIT:   13066585  MISS:      51367  HIT %:    99.6084  MISS %:   0.391578   MPKI: 0.256835
L1D PREFETCH  ACCESS:   14368436  HIT:   14309066  MISS:      59370  HIT %:    99.5868  MISS %:   0.413197   MPKI: 0.29685
L1D PREFETCH  REQUESTED:   44121133  ISSUED:   34221626  USEFUL:      49972  USELESS:       9483
L1D USEFUL LOAD PREFETCHES:      49972 PREFETCH ISSUED TO LOWER LEVEL:    1604810  ACCURACY: 3.11389
L1D TIMELY PREFETCHES:      49972 LATE PREFETCHES: 2168 DROPPED PREFETCHES: 492997
L1D PREFETCHES SAME FILL-ORIGIN LEVEL: 61538 DIFFERENT FILL-ORIGIN LEVEL: 1543272
L1D AVERAGE MISS LATENCY: 75.0672 cycles
L1D RQ	ACCESS:   43465928	FORWARD:          0	MERGED:   22096705	TO_CACHE:   21273332
L1D WQ	ACCESS:   13235582	FORWARD:      95960	MERGED:      25890	TO_CACHE:   13209692
L1D PQ	ACCESS:   17789394	FORWARD:          0	MERGED:    1357093	TO_CACHE:   16432232

L1D UNIQUE REGIONS ACCESSED: 0
L1D REGIONS CONFLICTS: 0
L1D Cross Page Prefetch Requests: 7698019
L1D Same Page Prefetch Requests: 14996994
L1D ROI Sum of L1D PQ occupancy: 263450133
L1D PREFETCHES PUSHED FROM L2C: 0
L1I TOTAL     ACCESS:   35505856  HIT:   34805900  MISS:     699956  HIT %:    98.0286  MISS %:    1.97138   MPKI: 3.49978
L1I LOAD      ACCESS:   35505856  HIT:   34805900  MISS:     699956  HIT %:    98.0286  MISS %:    1.97138   MPKI: 3.49978
L1I PREFETCH  REQUESTED:          0  ISSUED:          0  USEFUL:          0  USELESS:          0
L1I USEFUL LOAD PREFETCHES:          0 PREFETCH ISSUED TO LOWER LEVEL:          0  ACCURACY: -nan
L1I TIMELY PREFETCHES:          0 LATE PREFETCHES: 0 DROPPED PREFETCHES: 0
L1I PREFETCHES SAME FILL-ORIGIN LEVEL: 0 DIFFERENT FILL-ORIGIN LEVEL: 0
L1I AVERAGE MISS LATENCY: 14.5399 cycles
L1I RQ	ACCESS:   47918845	FORWARD:          0	MERGED:   12067069	TO_CACHE:   35851776

BTB TOTAL     ACCESS:    8273569  HIT:    7794945  MISS:     478624  HIT %:     94.215  MISS %:    5.78498   MPKI: 2.39312
BTB BRANCH_DIRECT_JUMP	ACCESS:     352852  HIT:     352661  MISS:        191
BTB BRANCH_INDIRECT	ACCESS:      11819  HIT:      10788  MISS:       1031
BTB BRANCH_CONDITIONAL	ACCESS:    6751074  HIT:    6750222  MISS:        852
BTB BRANCH_DIRECT_CALL	ACCESS:     340618  HIT:     340276  MISS:        342
BTB BRANCH_INDIRECT_CALL	ACCESS:     238291  HIT:     229426  MISS:       8865
BTB BRANCH_RETURN	ACCESS:     578915  HIT:     111572  MISS:     467343
BTB BRANCH_OTHER ACCESS:          0  HIT:          0  MISS:          0

L2C TOTAL     ACCESS:    2634555  HIT:    2505253  MISS:     129302  HIT %:    95.0921  MISS %:    4.90793   MPKI: 0.64651
L2C LOAD      ACCESS:     790878  HIT:     752417  MISS:      38461  HIT %:    95.1369  MISS %:    4.86308   MPKI: 0.192305
L2C DATA LOAD MPKI: 0.17095
L2C INSTRUCTION LOAD MPKI: 0.021355
L2C RFO       ACCESS:      51328  HIT:      16842  MISS:      34486  HIT %:    32.8125  MISS %:    67.1875   MPKI: 0.17243
L2C PREFETCH  ACCESS:    1540080  HIT:    1485291  MISS:      54789  HIT %:    96.4425  MISS %:    3.55754   MPKI: 0.273945
L2C DATA PREFETCH MPKI: 0.273945
L2C INSTRUCTION PREFETCH MPKI: 0
L2C WRITEBACK ACCESS:      65223  HIT:      64253  MISS:        970  HIT %:    98.5128  MISS %:    1.48721   MPKI: 0.00485
L2C LOAD TRANSLATION ACCESS:       2171  HIT:       1776  MISS:        395  HIT %:    81.8056  MISS %:    18.1944   MPKI: 0.001975
L2C TRANSLATION FROM L1D PREFETCHER ACCESS:     184875  HIT:     184674  MISS:        201  HIT %:    99.8913  MISS %:   0.108722   MPKI: 0.001005
L2C PREFETCH  REQUESTED:          0  ISSUED:          0  USEFUL:      13899  USELESS:      46151
L2C USEFUL LOAD PREFETCHES:      13899 PREFETCH ISSUED TO LOWER LEVEL:      58758  ACCURACY: 23.6547
L2C TIMELY PREFETCHES:      13899 LATE PREFETCHES: 3969 DROPPED PREFETCHES: 0
L2C PREFETCHES SAME FILL-ORIGIN LEVEL: 46834 DIFFERENT FILL-ORIGIN LEVEL: 0
L2C AVERAGE MISS LATENCY: 143.003 cycles
L2C RQ	ACCESS:    1029291	FORWARD:          0	MERGED:          0	TO_CACHE:    1029252
L2C WQ	ACCESS:      65223	FORWARD:         39	MERGED:          0	TO_CACHE:      65223
L2C PQ	ACCESS:    1604810	FORWARD:          0	MERGED:         20	TO_CACHE:    1604790

L2C Instructions Evicting Data 4101
L2C Translations Evicting Data 580
L2C Data Evicting Data 119935
L2C Instructions Evicting Instructions 140
L2C Translations Evicting Instructions 15
L2C Data Evicting Instructions 2960
L2C Instructions Evicting Translations 30
L2C Translations Evicting Translations 1
L2C Data Evicting Translations 570
L2C Dense regions hint from L2: 0
PSCL5 TOTAL     ACCESS:     186999  HIT:     186999  MISS:          0  HIT %:        100  MISS %:          0   MPKI: 0
PSCL5 LOAD TRANSLATION ACCESS:       2169  HIT:       2169  MISS:          0  HIT %:        100  MISS %:          0   MPKI: 0
PSCL5 TRANSLATION FROM L1D PREFETCHER ACCESS:     184830  HIT:     184830  MISS:          0  HIT %:        100  MISS %:          0   MPKI: 0
PSCL5 PREFETCH  REQUESTED:          0  ISSUED:          0  USEFUL:          0  USELESS:          0
PSCL5 USEFUL LOAD PREFETCHES:          0 PREFETCH ISSUED TO LOWER LEVEL:          0  ACCURACY: -nan
PSCL5 TIMELY PREFETCHES:          0 LATE PREFETCHES: 0 DROPPED PREFETCHES: 0
PSCL5 PREFETCHES SAME FILL-ORIGIN LEVEL: 0 DIFFERENT FILL-ORIGIN LEVEL: 0

PSCL4 TOTAL     ACCESS:     186999  HIT:     186999  MISS:          0  HIT %:        100  MISS %:          0   MPKI: 0
PSCL4 LOAD TRANSLATION ACCESS:       2169  HIT:       2169  MISS:          0  HIT %:        100  MISS %:          0   MPKI: 0
PSCL4 TRANSLATION FROM L1D PREFETCHER ACCESS:     184830  HIT:     184830  MISS:          0  HIT %:        100  MISS %:          0   MPKI: 0
PSCL4 PREFETCH  REQUESTED:          0  ISSUED:          0  USEFUL:          0  USELESS:          0
PSCL4 USEFUL LOAD PREFETCHES:          0 PREFETCH ISSUED TO LOWER LEVEL:          0  ACCURACY: -nan
PSCL4 TIMELY PREFETCHES:          0 LATE PREFETCHES: 0 DROPPED PREFETCHES: 0
PSCL4 PREFETCHES SAME FILL-ORIGIN LEVEL: 0 DIFFERENT FILL-ORIGIN LEVEL: 0

PSCL3 TOTAL     ACCESS:     186999  HIT:     186999  MISS:          0  HIT %:        100  MISS %:          0   MPKI: 0
PSCL3 LOAD TRANSLATION ACCESS:       2169  HIT:       2169  MISS:          0  HIT %:        100  MISS %:          0   MPKI: 0
PSCL3 TRANSLATION FROM L1D PREFETCHER ACCESS:     184830  HIT:     184830  MISS:          0  HIT %:        100  MISS %:          0   MPKI: 0
PSCL3 PREFETCH  REQUESTED:          0  ISSUED:          0  USEFUL:          0  USELESS:          0
PSCL3 USEFUL LOAD PREFETCHES:          0 PREFETCH ISSUED TO LOWER LEVEL:          0  ACCURACY: -nan
PSCL3 TIMELY PREFETCHES:          0 LATE PREFETCHES: 0 DROPPED PREFETCHES: 0
PSCL3 PREFETCHES SAME FILL-ORIGIN LEVEL: 0 DIFFERENT FILL-ORIGIN LEVEL: 0

PSCL2 TOTAL     ACCESS:     186954  HIT:     186932  MISS:         22  HIT %:    99.9882  MISS %:  0.0117676   MPKI: 0.00011
PSCL2 LOAD TRANSLATION ACCESS:       2169  HIT:       2147  MISS:         22  HIT %:    98.9857  MISS %:    1.01429   MPKI: 0.00011
PSCL2 TRANSLATION FROM L1D PREFETCHER ACCESS:     184785  HIT:     184785  MISS:          0  HIT %:        100  MISS %:          0   MPKI: 0
PSCL2 PREFETCH  REQUESTED:          0  ISSUED:          0  USEFUL:          0  USELESS:          0
PSCL2 USEFUL LOAD PREFETCHES:          0 PREFETCH ISSUED TO LOWER LEVEL:          0  ACCURACY: -nan
PSCL2 TIMELY PREFETCHES:          0 LATE PREFETCHES: 0 DROPPED PREFETCHES: 0
PSCL2 PREFETCHES SAME FILL-ORIGIN LEVEL: 0 DIFFERENT FILL-ORIGIN LEVEL: 0

LLC TOTAL     ACCESS:     160928  HIT:      44871  MISS:     116057  HIT %:    27.8827  MISS %:    72.1173   MPKI: 0.580285
LLC LOAD      ACCESS:      34492  HIT:       6776  MISS:      27716  HIT %:    19.6451  MISS %:    80.3549   MPKI: 0.13858
LLC RFO       ACCESS:      34486  HIT:        246  MISS:      34240  HIT %:   0.713333  MISS %:    99.2867   MPKI: 0.1712
LLC PREFETCH  ACCESS:      58758  HIT:       5802  MISS:      52956  HIT %:     9.8744  MISS %:    90.1256   MPKI: 0.26478
LLC WRITEBACK ACCESS:      32596  HIT:      31953  MISS:        643  HIT %:    98.0274  MISS %:    1.97263   MPKI: 0.003215
LLC LOAD TRANSLATION ACCESS:        395  HIT:         62  MISS:        333  HIT %:    15.6962  MISS %:    84.3038   MPKI: 0.001665
LLC TRANSLATION FROM L1D PREFETCHER ACCESS:        201  HIT:         32  MISS:        169  HIT %:    15.9204  MISS %:    84.0796   MPKI: 0.000845
LLC PREFETCH  REQUESTED:          0  ISSUED:          0  USEFUL:       1788  USELESS:      57363
LLC USEFUL LOAD PREFETCHES:       1788 PREFETCH ISSUED TO LOWER LEVEL:      52956  ACCURACY: 3.37639
LLC TIMELY PREFETCHES:       1788 LATE PREFETCHES: 0 DROPPED PREFETCHES: 0
LLC PREFETCHES SAME FILL-ORIGIN LEVEL: 0 DIFFERENT FILL-ORIGIN LEVEL: 0
LLC AVERAGE MISS LATENCY: 128.377 cycles
LLC RQ	ACCESS:      69574	FORWARD:          0	MERGED:          0	TO_CACHE:      69574
LLC WQ	ACCESS:      32596	FORWARD:          0	MERGED:          0	TO_CACHE:      32596
LLC PQ	ACCESS:      58758	FORWARD:          0	MERGED:          0	TO_CACHE:      58758

LLC Dense regions hint to LLC: 0

RAW hits: 533328
Loads Generated: 43999258
Loads sent to L1D: 43465928
Stores Generated: 13235570
Stores sent to L1D: 13235582
Major fault: 0 Minor fault: 2639
Allocated PAGES: 2639

DRAM Statistics
 CHANNEL 0
 RQ ROW_BUFFER_HIT:      57229  ROW_BUFFER_MISS:      58185
 DBUS_CONGESTED:         41
 WQ ROW_BUFFER_HIT:        945  ROW_BUFFER_MISS:      18939  FULL:          0

 AVG_CONGESTED_CYCLE: 5
 All warmup complete: 2
Channel 0 Bank busy for read cycles: 0
Channel 0 Bank busy for write cycles: 0
Channel 0
Rank 0
0banks busy for read cycles: 248251633
0banks busy for write cycles: 9831
1banks busy for read cycles: 4398965
1banks busy for write cycles: 1304978
2banks busy for read cycles: 859427
2banks busy for write cycles: 198306
3banks busy for read cycles: 383678
3banks busy for write cycles: 116194
4banks busy for read cycles: 243632
4banks busy for write cycles: 82229
5banks busy for read cycles: 151039
5banks busy for write cycles: 63075
6banks busy for read cycles: 146555
6banks busy for write cycles: 51259
7banks busy for read cycles: 82893
7banks busy for write cycles: 36360
8banks busy for read cycles: 141422
8banks busy for write cycles: 23946

CPU 0 Branch Prediction Accuracy: 98.6549% MPKI: 0.52946 Average ROB Occupancy at Mispredict: 27.0528
Branch types
NOT_BRANCH: 190604519 95.3023%
BRANCH_DIRECT_JUMP: 352852 0.176426%
BRANCH_INDIRECT: 11819 0.0059095%
BRANCH_CONDITIONAL: 7872640 3.93632%
BRANCH_DIRECT_CALL: 340618 0.170309%
BRANCH_INDIRECT_CALL: 238291 0.119146%
BRANCH_RETURN: 578915 0.289457%
BRANCH_OTHER: 0 0%

DRAM PAGES: 1048576
Allocated PAGES: 2639
