526208 bits of metadata so far, 405638 left out of 526336 total budget
table size is 13521 bits, 2253 entries for 5 bit, 1931 entries for 6 bit
526208 total bits (64.23KB)

*** ChampSim Multicore Out-of-Order Simulator ***

Warmup Instructions: 50000000
Simulation Instructions: 200000000
Number of CPUs: 1
LLC sets: 2048
LLC ways: 16
Off-chip DRAM Size: 4096 MB Channels: 1 Width: 64-bit Data Rate: 6400 MT/s
argv[0]: ./ChampSim/Berti/bin/multiperspective_perceptron-no-vberti-no-no-no-no-no-lru-lru-lru-srrip-drrip-lru-lru-lru-1core-no
argv[1]: -warmup_instructions
argv[2]: 50000000
argv[3]: -simulation_instructions
argv[4]: 200000000
argv[5]: -traces
argv[6]: traces/spec2k17_ten/625.x264_s-33B.champsimtrace.xz
CPU 0 runs traces/spec2k17_ten/625.x264_s-33B.champsimtrace.xz
.xz
CPU 0 Multiperspective perceptron branch predictor
BTB has LRU replacement policy
ITLB has LRU replacement policy
DTLB has LRU replacement policy
STLB has LRU replacement policy
L1I has LRU replacement policy
History Sets: 8
History Ways: 16
BERTI Size: 16
BERTI Stride Size: 16
L1D has LRU replacement policy
Initialize SRRIP state for L2C
Initialize DRRIP state for LLC
Heartbeat CPU 0 instructions: 10000001 cycles: 2707535 heartbeat IPC: 3.6934 cumulative IPC: 3.6934 (Simulation time: 0 hr 2 min 42 sec) 
Heartbeat CPU 0 instructions: 20000001 cycles: 5416283 heartbeat IPC: 3.69174 cumulative IPC: 3.69257 (Simulation time: 0 hr 9 min 4 sec) 
Heartbeat CPU 0 instructions: 30000000 cycles: 8109723 heartbeat IPC: 3.71272 cumulative IPC: 3.69926 (Simulation time: 0 hr 13 min 15 sec) 
Heartbeat CPU 0 instructions: 40000000 cycles: 10797944 heartbeat IPC: 3.71993 cumulative IPC: 3.70441 (Simulation time: 0 hr 15 min 1 sec) 
Heartbeat CPU 0 instructions: 50000001 cycles: 13484477 heartbeat IPC: 3.72227 cumulative IPC: 3.70797 (Simulation time: 0 hr 18 min 55 sec) 

Warmup complete CPU 0 instructions: 50000001 cycles: 13484477 (Simulation time: 0 hr 18 min 55 sec) 

Heartbeat CPU 0 instructions: 60000000 cycles: 26432993 heartbeat IPC: 0.772289 cumulative IPC: 0.772289 (Simulation time: 0 hr 22 min 38 sec) 
Heartbeat CPU 0 instructions: 70000002 cycles: 39474914 heartbeat IPC: 0.766758 cumulative IPC: 0.769514 (Simulation time: 0 hr 26 min 36 sec) 
Heartbeat CPU 0 instructions: 80000000 cycles: 52483726 heartbeat IPC: 0.76871 cumulative IPC: 0.769246 (Simulation time: 0 hr 30 min 23 sec) 
Heartbeat CPU 0 instructions: 90000002 cycles: 65504649 heartbeat IPC: 0.767995 cumulative IPC: 0.768933 (Simulation time: 0 hr 33 min 39 sec) 
Heartbeat CPU 0 instructions: 100000001 cycles: 78608872 heartbeat IPC: 0.763113 cumulative IPC: 0.767761 (Simulation time: 0 hr 36 min 39 sec) 
Heartbeat CPU 0 instructions: 110000000 cycles: 91838368 heartbeat IPC: 0.755887 cumulative IPC: 0.765756 (Simulation time: 0 hr 39 min 36 sec) 
Heartbeat CPU 0 instructions: 120000002 cycles: 104691906 heartbeat IPC: 0.777996 cumulative IPC: 0.767481 (Simulation time: 0 hr 43 min 24 sec) 
Heartbeat CPU 0 instructions: 130000003 cycles: 117389082 heartbeat IPC: 0.787577 cumulative IPC: 0.769937 (Simulation time: 0 hr 47 min 10 sec) 
Heartbeat CPU 0 instructions: 140000000 cycles: 130063767 heartbeat IPC: 0.788974 cumulative IPC: 0.772007 (Simulation time: 0 hr 50 min 32 sec) 
Heartbeat CPU 0 instructions: 150000001 cycles: 142781843 heartbeat IPC: 0.786283 cumulative IPC: 0.773411 (Simulation time: 0 hr 54 min 19 sec) 
Heartbeat CPU 0 instructions: 160000000 cycles: 155512694 heartbeat IPC: 0.785493 cumulative IPC: 0.774494 (Simulation time: 0 hr 58 min 17 sec) 
Heartbeat CPU 0 instructions: 170000002 cycles: 168354901 heartbeat IPC: 0.778683 cumulative IPC: 0.774841 (Simulation time: 1 hr 1 min 55 sec) 
Heartbeat CPU 0 instructions: 180000001 cycles: 181064429 heartbeat IPC: 0.786811 cumulative IPC: 0.775749 (Simulation time: 1 hr 5 min 39 sec) 
Heartbeat CPU 0 instructions: 190000002 cycles: 193546005 heartbeat IPC: 0.801181 cumulative IPC: 0.777512 (Simulation time: 1 hr 9 min 47 sec) 
Heartbeat CPU 0 instructions: 200000000 cycles: 205973963 heartbeat IPC: 0.804637 cumulative IPC: 0.779263 (Simulation time: 1 hr 13 min 14 sec) 
Heartbeat CPU 0 instructions: 210000000 cycles: 218436828 heartbeat IPC: 0.802384 cumulative IPC: 0.780669 (Simulation time: 1 hr 16 min 52 sec) 
Heartbeat CPU 0 instructions: 220000000 cycles: 230911600 heartbeat IPC: 0.801618 cumulative IPC: 0.781871 (Simulation time: 1 hr 20 min 27 sec) 
Heartbeat CPU 0 instructions: 230000000 cycles: 243655748 heartbeat IPC: 0.784674 cumulative IPC: 0.782026 (Simulation time: 1 hr 23 min 45 sec) 
Heartbeat CPU 0 instructions: 240000003 cycles: 256567042 heartbeat IPC: 0.774516 cumulative IPC: 0.781627 (Simulation time: 1 hr 26 min 34 sec) 
Heartbeat CPU 0 instructions: 250000000 cycles: 269394276 heartbeat IPC: 0.779591 cumulative IPC: 0.781525 (Simulation time: 1 hr 28 min 54 sec) 
Finished CPU 0 instructions: 200000001 cycles: 255909800 cumulative IPC: 0.781525 (Simulation time: 1 hr 28 min 54 sec) 

ChampSim completed all CPUs

Region of Interest Statistics

CPU 0 cumulative IPC: 0.781525 instructions: 200000001 cycles: 255909800
ITLB TOTAL     ACCESS:   28086357  HIT:   28086356  MISS:          1  HIT %:        100  MISS %: 3.56045e-06   MPKI: 5e-06
ITLB LOAD TRANSLATION ACCESS:   28086357  HIT:   28086356  MISS:          1  HIT %:        100  MISS %: 3.56045e-06   MPKI: 5e-06
ITLB PREFETCH  REQUESTED:          0  ISSUED:          0  USEFUL:          0  USELESS:          0
ITLB USEFUL LOAD PREFETCHES:          0 PREFETCH ISSUED TO LOWER LEVEL:          0  ACCURACY: -nan
ITLB TIMELY PREFETCHES:          0 LATE PREFETCHES: 0 DROPPED PREFETCHES: 0
ITLB PREFETCHES SAME FILL-ORIGIN LEVEL: 0 DIFFERENT FILL-ORIGIN LEVEL: 0
ITLB AVERAGE MISS LATENCY: 320 cycles
ITLB RQ	ACCESS:   35404969	FORWARD:          0	MERGED:    7318613	TO_CACHE:   28086356

DTLB TOTAL     ACCESS:   26655424  HIT:   26636975  MISS:      18449  HIT %:    99.9308  MISS %:  0.0692129   MPKI: 0.092245
DTLB LOAD TRANSLATION ACCESS:   26655424  HIT:   26636975  MISS:      18449  HIT %:    99.9308  MISS %:  0.0692129   MPKI: 0.092245
DTLB PREFETCH  REQUESTED:          0  ISSUED:          0  USEFUL:          0  USELESS:          0
DTLB USEFUL LOAD PREFETCHES:          0 PREFETCH ISSUED TO LOWER LEVEL:          0  ACCURACY: -nan
DTLB TIMELY PREFETCHES:          0 LATE PREFETCHES: 0 DROPPED PREFETCHES: 0
DTLB PREFETCHES SAME FILL-ORIGIN LEVEL: 0 DIFFERENT FILL-ORIGIN LEVEL: 0
DTLB AVERAGE MISS LATENCY: 16.9028 cycles
DTLB RQ	ACCESS:   32617622	FORWARD:          0	MERGED:    5961336	TO_CACHE:   26656286

STLB TOTAL     ACCESS:    4883186  HIT:    4882201  MISS:        985  HIT %:    99.9798  MISS %:  0.0201713   MPKI: 0.004925
STLB LOAD TRANSLATION ACCESS:      18450  HIT:      17465  MISS:        985  HIT %:    94.6612  MISS %:    5.33875   MPKI: 0.004925
STLB TRANSLATION FROM L1D PREFETCHER ACCESS:    4864736  HIT:    4864736  MISS:          0  HIT %:        100  MISS %:          0   MPKI: 0
STLB PREFETCH  REQUESTED:          0  ISSUED:          0  USEFUL:          0  USELESS:          0
STLB USEFUL LOAD PREFETCHES:          0 PREFETCH ISSUED TO LOWER LEVEL:          0  ACCURACY: -nan
STLB TIMELY PREFETCHES:          0 LATE PREFETCHES: 7 DROPPED PREFETCHES: 62770
STLB PREFETCHES SAME FILL-ORIGIN LEVEL: 0 DIFFERENT FILL-ORIGIN LEVEL: 0
STLB AVERAGE MISS LATENCY: 148.56 cycles
STLB RQ	ACCESS:   12317981	FORWARD:          0	MERGED:    7369968	TO_CACHE:    4948013

STLB Hit, L1D data hit: 0
STLB Hit, L2C data hit: 0
STLB Hit, LLC data hit: 0
STLB Hit, LLC data miss: 0
STLB STLB hints to L2: 0
L1D TOTAL     ACCESS:   43333849  HIT:   43254188  MISS:      79661  HIT %:    99.8162  MISS %:   0.183831   MPKI: 0.398305
L1D LOAD      ACCESS:   18486568  HIT:   18440737  MISS:      45831  HIT %:    99.7521  MISS %:   0.247915   MPKI: 0.229155
L1D RFO       ACCESS:   14115787  HIT:   14113498  MISS:       2289  HIT %:    99.9838  MISS %:  0.0162159   MPKI: 0.011445
L1D PREFETCH  ACCESS:   10731494  HIT:   10699953  MISS:      31541  HIT %:    99.7061  MISS %:   0.293911   MPKI: 0.157705
L1D PREFETCH  REQUESTED:   26554008  ISSUED:   26393658  USEFUL:      25777  USELESS:       5701
L1D USEFUL LOAD PREFETCHES:      25777 PREFETCH ISSUED TO LOWER LEVEL:    1461473  ACCURACY: 1.76377
L1D TIMELY PREFETCHES:      25777 LATE PREFETCHES: 2086 DROPPED PREFETCHES: 130381
L1D PREFETCHES SAME FILL-ORIGIN LEVEL: 33637 DIFFERENT FILL-ORIGIN LEVEL: 1427836
L1D AVERAGE MISS LATENCY: 75.2048 cycles
L1D RQ	ACCESS:   47053342	FORWARD:          0	MERGED:   28462150	TO_CACHE:   18500630
L1D WQ	ACCESS:   14133461	FORWARD:      90562	MERGED:      16469	TO_CACHE:   14116992
L1D PQ	ACCESS:   14094127	FORWARD:          0	MERGED:    1794596	TO_CACHE:   12299531

L1D UNIQUE REGIONS ACCESSED: 0
L1D REGIONS CONFLICTS: 0
L1D Cross Page Prefetch Requests: 8237050
L1D Same Page Prefetch Requests: 10140904
L1D ROI Sum of L1D PQ occupancy: 184404689
L1D PREFETCHES PUSHED FROM L2C: 0
L1I TOTAL     ACCESS:   35404953  HIT:   35404908  MISS:         45  HIT %:    99.9999  MISS %: 0.000127101   MPKI: 0.000225
L1I LOAD      ACCESS:   35404953  HIT:   35404908  MISS:         45  HIT %:    99.9999  MISS %: 0.000127101   MPKI: 0.000225
L1I PREFETCH  REQUESTED:          0  ISSUED:          0  USEFUL:          0  USELESS:          0
L1I USEFUL LOAD PREFETCHES:          0 PREFETCH ISSUED TO LOWER LEVEL:          0  ACCURACY: -nan
L1I TIMELY PREFETCHES:          0 LATE PREFETCHES: 0 DROPPED PREFETCHES: 0
L1I PREFETCHES SAME FILL-ORIGIN LEVEL: 0 DIFFERENT FILL-ORIGIN LEVEL: 0
L1I AVERAGE MISS LATENCY: 204.711 cycles
L1I RQ	ACCESS:   47740657	FORWARD:          0	MERGED:   12335688	TO_CACHE:   35404969

BTB TOTAL     ACCESS:    7229807  HIT:    6731727  MISS:     498080  HIT %:    93.1107  MISS %:    6.88926   MPKI: 2.4904
BTB BRANCH_DIRECT_JUMP	ACCESS:     158358  HIT:     158332  MISS:         26
BTB BRANCH_INDIRECT	ACCESS:      10447  HIT:      10446  MISS:          1
BTB BRANCH_CONDITIONAL	ACCESS:    5888112  HIT:    5888018  MISS:         94
BTB BRANCH_DIRECT_CALL	ACCESS:     294615  HIT:     294595  MISS:         20
BTB BRANCH_INDIRECT_CALL	ACCESS:     291830  HIT:     291778  MISS:         52
BTB BRANCH_RETURN	ACCESS:     586445  HIT:      88558  MISS:     497887
BTB BRANCH_OTHER ACCESS:          0  HIT:          0  MISS:          0

L2C TOTAL     ACCESS:    1543506  HIT:    1474896  MISS:      68610  HIT %:    95.5549  MISS %:    4.44508   MPKI: 0.34305
L2C LOAD      ACCESS:      43790  HIT:      19259  MISS:      24531  HIT %:    43.9804  MISS %:    56.0196   MPKI: 0.122655
L2C DATA LOAD MPKI: 0.12243
L2C INSTRUCTION LOAD MPKI: 0.000225
L2C RFO       ACCESS:       2289  HIT:         82  MISS:       2207  HIT %:    3.58235  MISS %:    96.4176   MPKI: 0.011035
L2C PREFETCH  ACCESS:    1431341  HIT:    1389830  MISS:      41511  HIT %:    97.0999  MISS %:    2.90015   MPKI: 0.207555
L2C DATA PREFETCH MPKI: 0.207555
L2C INSTRUCTION PREFETCH MPKI: 0
L2C WRITEBACK ACCESS:       2324  HIT:       2168  MISS:        156  HIT %:    93.2874  MISS %:    6.71256   MPKI: 0.00078
L2C LOAD TRANSLATION ACCESS:        985  HIT:        852  MISS:        133  HIT %:    86.4975  MISS %:    13.5025   MPKI: 0.000665
L2C TRANSLATION FROM L1D PREFETCHER ACCESS:      62777  HIT:      62705  MISS:         72  HIT %:    99.8853  MISS %:   0.114692   MPKI: 0.00036
L2C PREFETCH  REQUESTED:          0  ISSUED:          0  USEFUL:      14855  USELESS:      28894
L2C USEFUL LOAD PREFETCHES:      14855 PREFETCH ISSUED TO LOWER LEVEL:      45725  ACCURACY: 32.4877
L2C TIMELY PREFETCHES:      14855 LATE PREFETCHES: 4214 DROPPED PREFETCHES: 0
L2C PREFETCHES SAME FILL-ORIGIN LEVEL: 39524 DIFFERENT FILL-ORIGIN LEVEL: 0
L2C AVERAGE MISS LATENCY: 139.116 cycles
L2C RQ	ACCESS:     109841	FORWARD:          0	MERGED:          0	TO_CACHE:     109841
L2C WQ	ACCESS:       2324	FORWARD:          0	MERGED:          0	TO_CACHE:       2324
L2C PQ	ACCESS:    1461463	FORWARD:          0	MERGED:         21	TO_CACHE:    1461442

L2C Instructions Evicting Data 45
L2C Translations Evicting Data 204
L2C Data Evicting Data 67950
L2C Instructions Evicting Instructions 0
L2C Translations Evicting Instructions 0
L2C Data Evicting Instructions 59
L2C Instructions Evicting Translations 0
L2C Translations Evicting Translations 1
L2C Data Evicting Translations 195
L2C Dense regions hint from L2: 0
PSCL5 TOTAL     ACCESS:      63762  HIT:      63762  MISS:          0  HIT %:        100  MISS %:          0   MPKI: 0
PSCL5 LOAD TRANSLATION ACCESS:        985  HIT:        985  MISS:          0  HIT %:        100  MISS %:          0   MPKI: 0
PSCL5 TRANSLATION FROM L1D PREFETCHER ACCESS:      62777  HIT:      62777  MISS:          0  HIT %:        100  MISS %:          0   MPKI: 0
PSCL5 PREFETCH  REQUESTED:          0  ISSUED:          0  USEFUL:          0  USELESS:          0
PSCL5 USEFUL LOAD PREFETCHES:          0 PREFETCH ISSUED TO LOWER LEVEL:          0  ACCURACY: -nan
PSCL5 TIMELY PREFETCHES:          0 LATE PREFETCHES: 0 DROPPED PREFETCHES: 0
PSCL5 PREFETCHES SAME FILL-ORIGIN LEVEL: 0 DIFFERENT FILL-ORIGIN LEVEL: 0

PSCL4 TOTAL     ACCESS:      63762  HIT:      63762  MISS:          0  HIT %:        100  MISS %:          0   MPKI: 0
PSCL4 LOAD TRANSLATION ACCESS:        985  HIT:        985  MISS:          0  HIT %:        100  MISS %:          0   MPKI: 0
PSCL4 TRANSLATION FROM L1D PREFETCHER ACCESS:      62777  HIT:      62777  MISS:          0  HIT %:        100  MISS %:          0   MPKI: 0
PSCL4 PREFETCH  REQUESTED:          0  ISSUED:          0  USEFUL:          0  USELESS:          0
PSCL4 USEFUL LOAD PREFETCHES:          0 PREFETCH ISSUED TO LOWER LEVEL:          0  ACCURACY: -nan
PSCL4 TIMELY PREFETCHES:          0 LATE PREFETCHES: 0 DROPPED PREFETCHES: 0
PSCL4 PREFETCHES SAME FILL-ORIGIN LEVEL: 0 DIFFERENT FILL-ORIGIN LEVEL: 0

PSCL3 TOTAL     ACCESS:      63762  HIT:      63762  MISS:          0  HIT %:        100  MISS %:          0   MPKI: 0
PSCL3 LOAD TRANSLATION ACCESS:        985  HIT:        985  MISS:          0  HIT %:        100  MISS %:          0   MPKI: 0
PSCL3 TRANSLATION FROM L1D PREFETCHER ACCESS:      62777  HIT:      62777  MISS:          0  HIT %:        100  MISS %:          0   MPKI: 0
PSCL3 PREFETCH  REQUESTED:          0  ISSUED:          0  USEFUL:          0  USELESS:          0
PSCL3 USEFUL LOAD PREFETCHES:          0 PREFETCH ISSUED TO LOWER LEVEL:          0  ACCURACY: -nan
PSCL3 TIMELY PREFETCHES:          0 LATE PREFETCHES: 0 DROPPED PREFETCHES: 0
PSCL3 PREFETCHES SAME FILL-ORIGIN LEVEL: 0 DIFFERENT FILL-ORIGIN LEVEL: 0

PSCL2 TOTAL     ACCESS:      63762  HIT:      63751  MISS:         11  HIT %:    99.9827  MISS %:  0.0172517   MPKI: 5.5e-05
PSCL2 LOAD TRANSLATION ACCESS:        985  HIT:        974  MISS:         11  HIT %:    98.8832  MISS %:    1.11675   MPKI: 5.5e-05
PSCL2 TRANSLATION FROM L1D PREFETCHER ACCESS:      62777  HIT:      62777  MISS:          0  HIT %:        100  MISS %:          0   MPKI: 0
PSCL2 PREFETCH  REQUESTED:          0  ISSUED:          0  USEFUL:          0  USELESS:          0
PSCL2 USEFUL LOAD PREFETCHES:          0 PREFETCH ISSUED TO LOWER LEVEL:          0  ACCURACY: -nan
PSCL2 TIMELY PREFETCHES:          0 LATE PREFETCHES: 0 DROPPED PREFETCHES: 0
PSCL2 PREFETCHES SAME FILL-ORIGIN LEVEL: 0 DIFFERENT FILL-ORIGIN LEVEL: 0

LLC TOTAL     ACCESS:      70695  HIT:       6786  MISS:      63909  HIT %:    9.59898  MISS %:     90.401   MPKI: 0.319545
LLC LOAD      ACCESS:      20317  HIT:        543  MISS:      19774  HIT %:    2.67264  MISS %:    97.3274   MPKI: 0.09887
LLC RFO       ACCESS:       2207  HIT:         15  MISS:       2192  HIT %:   0.679656  MISS %:    99.3203   MPKI: 0.01096
LLC PREFETCH  ACCESS:      45725  HIT:       4007  MISS:      41718  HIT %:    8.76326  MISS %:    91.2367   MPKI: 0.20859
LLC WRITEBACK ACCESS:       2241  HIT:       2198  MISS:         43  HIT %:    98.0812  MISS %:    1.91879   MPKI: 0.000215
LLC LOAD TRANSLATION ACCESS:        133  HIT:         20  MISS:        113  HIT %:    15.0376  MISS %:    84.9624   MPKI: 0.000565
LLC TRANSLATION FROM L1D PREFETCHER ACCESS:         72  HIT:          3  MISS:         69  HIT %:    4.16667  MISS %:    95.8333   MPKI: 0.000345
LLC PREFETCH  REQUESTED:          0  ISSUED:          0  USEFUL:        242  USELESS:      33320
LLC USEFUL LOAD PREFETCHES:        242 PREFETCH ISSUED TO LOWER LEVEL:      41718  ACCURACY: 0.580085
LLC TIMELY PREFETCHES:        242 LATE PREFETCHES: 0 DROPPED PREFETCHES: 0
LLC PREFETCHES SAME FILL-ORIGIN LEVEL: 0 DIFFERENT FILL-ORIGIN LEVEL: 0
LLC AVERAGE MISS LATENCY: 121.258 cycles
LLC RQ	ACCESS:      22729	FORWARD:          0	MERGED:          0	TO_CACHE:      22729
LLC WQ	ACCESS:       2241	FORWARD:          0	MERGED:          0	TO_CACHE:       2241
LLC PQ	ACCESS:      45725	FORWARD:          0	MERGED:          0	TO_CACHE:      45725

LLC Dense regions hint to LLC: 0

RAW hits: 534832
Loads Generated: 47588174
Loads sent to L1D: 47053342
Stores Generated: 14133446
Stores sent to L1D: 14133461
Major fault: 0 Minor fault: 1314
Allocated PAGES: 1314

DRAM Statistics
 CHANNEL 0
 RQ ROW_BUFFER_HIT:      35475  ROW_BUFFER_MISS:      28391
 DBUS_CONGESTED:         30
 WQ ROW_BUFFER_HIT:        102  ROW_BUFFER_MISS:       1390  FULL:          0

 AVG_CONGESTED_CYCLE: 4
 All warmup complete: 2
Channel 0 Bank busy for read cycles: 0
Channel 0 Bank busy for write cycles: 0
Channel 0
Rank 0
0banks busy for read cycles: 252723622
0banks busy for write cycles: 1024
1banks busy for read cycles: 1723917
1banks busy for write cycles: 129456
2banks busy for read cycles: 583057
2banks busy for write cycles: 32206
3banks busy for read cycles: 260260
3banks busy for write cycles: 10742
4banks busy for read cycles: 149786
4banks busy for write cycles: 3578
5banks busy for read cycles: 112444
5banks busy for write cycles: 1454
6banks busy for read cycles: 86324
6banks busy for write cycles: 64
7banks busy for read cycles: 46148
7banks busy for write cycles: 439
8banks busy for read cycles: 44932
8banks busy for write cycles: 348

CPU 0 Branch Prediction Accuracy: 99.728% MPKI: 0.09209 Average ROB Occupancy at Mispredict: 43.0366
Branch types
NOT_BRANCH: 191885537 95.9428%
BRANCH_DIRECT_JUMP: 158358 0.079179%
BRANCH_INDIRECT: 10447 0.0052235%
BRANCH_CONDITIONAL: 6772424 3.38621%
BRANCH_DIRECT_CALL: 294615 0.147307%
BRANCH_INDIRECT_CALL: 291830 0.145915%
BRANCH_RETURN: 586445 0.293222%
BRANCH_OTHER: 0 0%

DRAM PAGES: 1048576
Allocated PAGES: 1314
