526208 bits of metadata so far, 405638 left out of 526336 total budget
table size is 13521 bits, 2253 entries for 5 bit, 1931 entries for 6 bit
526208 total bits (64.23KB)

*** ChampSim Multicore Out-of-Order Simulator ***

Warmup Instructions: 50000000
Simulation Instructions: 200000000
Number of CPUs: 1
LLC sets: 2048
LLC ways: 16
Off-chip DRAM Size: 4096 MB Channels: 1 Width: 64-bit Data Rate: 6400 MT/s
argv[0]: ./ChampSim/Berti/bin/multiperspective_perceptron-no-vberti-no-no-no-no-no-lru-lru-lru-srrip-drrip-lru-lru-lru-1core-no
argv[1]: -warmup_instructions
argv[2]: 50000000
argv[3]: -simulation_instructions
argv[4]: 200000000
argv[5]: -traces
argv[6]: traces/spec2k17_ten/625.x264_s-39B.champsimtrace.xz
CPU 0 runs traces/spec2k17_ten/625.x264_s-39B.champsimtrace.xz
.xz
CPU 0 Multiperspective perceptron branch predictor
BTB has LRU replacement policy
ITLB has LRU replacement policy
DTLB has LRU replacement policy
STLB has LRU replacement policy
L1I has LRU replacement policy
History Sets: 8
History Ways: 16
BERTI Size: 16
BERTI Stride Size: 16
L1D has LRU replacement policy
Initialize SRRIP state for L2C
Initialize DRRIP state for LLC
Heartbeat CPU 0 instructions: 10000003 cycles: 2725235 heartbeat IPC: 3.66941 cumulative IPC: 3.66941 (Simulation time: 0 hr 5 min 40 sec) 
Heartbeat CPU 0 instructions: 20000002 cycles: 5442663 heartbeat IPC: 3.67995 cumulative IPC: 3.67467 (Simulation time: 0 hr 10 min 47 sec) 
Heartbeat CPU 0 instructions: 30000003 cycles: 8165249 heartbeat IPC: 3.67298 cumulative IPC: 3.67411 (Simulation time: 0 hr 13 min 20 sec) 
Heartbeat CPU 0 instructions: 40000000 cycles: 10882396 heartbeat IPC: 3.68033 cumulative IPC: 3.67566 (Simulation time: 0 hr 14 min 25 sec) 
Heartbeat CPU 0 instructions: 50000003 cycles: 13605480 heartbeat IPC: 3.67231 cumulative IPC: 3.67499 (Simulation time: 0 hr 18 min 34 sec) 

Warmup complete CPU 0 instructions: 50000003 cycles: 13605480 (Simulation time: 0 hr 18 min 34 sec) 

Heartbeat CPU 0 instructions: 60000000 cycles: 26528311 heartbeat IPC: 0.773824 cumulative IPC: 0.773824 (Simulation time: 0 hr 22 min 23 sec) 
Heartbeat CPU 0 instructions: 70000002 cycles: 39811842 heartbeat IPC: 0.752812 cumulative IPC: 0.763173 (Simulation time: 0 hr 26 min 39 sec) 
Heartbeat CPU 0 instructions: 80000000 cycles: 52774621 heartbeat IPC: 0.771439 cumulative IPC: 0.765909 (Simulation time: 0 hr 30 min 4 sec) 
Heartbeat CPU 0 instructions: 90000002 cycles: 66048764 heartbeat IPC: 0.753344 cumulative IPC: 0.762729 (Simulation time: 0 hr 34 min 5 sec) 
Heartbeat CPU 0 instructions: 100000001 cycles: 79150798 heartbeat IPC: 0.76324 cumulative IPC: 0.762831 (Simulation time: 0 hr 37 min 51 sec) 
Heartbeat CPU 0 instructions: 110000000 cycles: 92122479 heartbeat IPC: 0.77091 cumulative IPC: 0.764166 (Simulation time: 0 hr 41 min 30 sec) 
Heartbeat CPU 0 instructions: 120000001 cycles: 107450002 heartbeat IPC: 0.652421 cumulative IPC: 0.745915 (Simulation time: 0 hr 45 min 40 sec) 
Heartbeat CPU 0 instructions: 130000002 cycles: 118973702 heartbeat IPC: 0.867777 cumulative IPC: 0.759242 (Simulation time: 0 hr 49 min 1 sec) 
Heartbeat CPU 0 instructions: 140000000 cycles: 130390995 heartbeat IPC: 0.875864 cumulative IPC: 0.770643 (Simulation time: 0 hr 53 min 3 sec) 
Heartbeat CPU 0 instructions: 150000000 cycles: 142911496 heartbeat IPC: 0.79869 cumulative IPC: 0.773359 (Simulation time: 0 hr 57 min 11 sec) 
Heartbeat CPU 0 instructions: 160000001 cycles: 154889107 heartbeat IPC: 0.834891 cumulative IPC: 0.778576 (Simulation time: 1 hr 1 min 14 sec) 
Heartbeat CPU 0 instructions: 170000001 cycles: 166591000 heartbeat IPC: 0.854563 cumulative IPC: 0.784388 (Simulation time: 1 hr 4 min 53 sec) 
Heartbeat CPU 0 instructions: 180000000 cycles: 178603251 heartbeat IPC: 0.832483 cumulative IPC: 0.787889 (Simulation time: 1 hr 8 min 17 sec) 
Heartbeat CPU 0 instructions: 190000002 cycles: 191106089 heartbeat IPC: 0.799819 cumulative IPC: 0.78873 (Simulation time: 1 hr 11 min 45 sec) 
Heartbeat CPU 0 instructions: 200000001 cycles: 203205267 heartbeat IPC: 0.826502 cumulative IPC: 0.79114 (Simulation time: 1 hr 15 min 20 sec) 
Heartbeat CPU 0 instructions: 210000001 cycles: 215706812 heartbeat IPC: 0.799901 cumulative IPC: 0.791682 (Simulation time: 1 hr 18 min 35 sec) 
Heartbeat CPU 0 instructions: 220000000 cycles: 227802278 heartbeat IPC: 0.826756 cumulative IPC: 0.793663 (Simulation time: 1 hr 21 min 38 sec) 
Heartbeat CPU 0 instructions: 230000001 cycles: 239926950 heartbeat IPC: 0.824765 cumulative IPC: 0.795329 (Simulation time: 1 hr 24 min 47 sec) 
Heartbeat CPU 0 instructions: 240000000 cycles: 252375214 heartbeat IPC: 0.803325 cumulative IPC: 0.795746 (Simulation time: 1 hr 27 min 54 sec) 
Heartbeat CPU 0 instructions: 250000002 cycles: 264572724 heartbeat IPC: 0.81984 cumulative IPC: 0.796917 (Simulation time: 1 hr 31 min 2 sec) 
Finished CPU 0 instructions: 200000001 cycles: 250967245 cumulative IPC: 0.796917 (Simulation time: 1 hr 31 min 2 sec) 

ChampSim completed all CPUs

Region of Interest Statistics

CPU 0 cumulative IPC: 0.796917 instructions: 200000001 cycles: 250967245
ITLB TOTAL     ACCESS:   28540339  HIT:   28538669  MISS:       1670  HIT %:    99.9941  MISS %: 0.00585137   MPKI: 0.00835
ITLB LOAD TRANSLATION ACCESS:   28540339  HIT:   28538669  MISS:       1670  HIT %:    99.9941  MISS %: 0.00585137   MPKI: 0.00835
ITLB PREFETCH  REQUESTED:          0  ISSUED:          0  USEFUL:          0  USELESS:          0
ITLB USEFUL LOAD PREFETCHES:          0 PREFETCH ISSUED TO LOWER LEVEL:          0  ACCURACY: -nan
ITLB TIMELY PREFETCHES:          0 LATE PREFETCHES: 0 DROPPED PREFETCHES: 0
ITLB PREFETCHES SAME FILL-ORIGIN LEVEL: 0 DIFFERENT FILL-ORIGIN LEVEL: 0
ITLB AVERAGE MISS LATENCY: 17.524 cycles
ITLB RQ	ACCESS:   36018097	FORWARD:          0	MERGED:    7477335	TO_CACHE:   28540762

DTLB TOTAL     ACCESS:   29215952  HIT:   28967363  MISS:     248589  HIT %:    99.1491  MISS %:   0.850867   MPKI: 1.24294
DTLB LOAD TRANSLATION ACCESS:   29215952  HIT:   28967363  MISS:     248589  HIT %:    99.1491  MISS %:   0.850867   MPKI: 1.24294
DTLB PREFETCH  REQUESTED:          0  ISSUED:          0  USEFUL:          0  USELESS:          0
DTLB USEFUL LOAD PREFETCHES:          0 PREFETCH ISSUED TO LOWER LEVEL:          0  ACCURACY: -nan
DTLB TIMELY PREFETCHES:          0 LATE PREFETCHES: 0 DROPPED PREFETCHES: 0
DTLB PREFETCHES SAME FILL-ORIGIN LEVEL: 0 DIFFERENT FILL-ORIGIN LEVEL: 0
DTLB AVERAGE MISS LATENCY: 11.6226 cycles
DTLB RQ	ACCESS:   36307900	FORWARD:          0	MERGED:    7035551	TO_CACHE:   29272349

STLB TOTAL     ACCESS:    7127504  HIT:    7123513  MISS:       3991  HIT %:     99.944  MISS %:  0.0559944   MPKI: 0.019955
STLB LOAD TRANSLATION ACCESS:     250259  HIT:     246283  MISS:       3976  HIT %:    98.4112  MISS %:    1.58875   MPKI: 0.01988
STLB TRANSLATION FROM L1D PREFETCHER ACCESS:    6877245  HIT:    6877230  MISS:         15  HIT %:    99.9998  MISS %: 0.000218111   MPKI: 7.5e-05
STLB PREFETCH  REQUESTED:          0  ISSUED:          0  USEFUL:          8  USELESS:          2
STLB USEFUL LOAD PREFETCHES:          8 PREFETCH ISSUED TO LOWER LEVEL:          0  ACCURACY: inf
STLB TIMELY PREFETCHES:          8 LATE PREFETCHES: 165 DROPPED PREFETCHES: 93870
STLB PREFETCHES SAME FILL-ORIGIN LEVEL: 0 DIFFERENT FILL-ORIGIN LEVEL: 0
STLB AVERAGE MISS LATENCY: 165.006 cycles
STLB RQ	ACCESS:   24504709	FORWARD:          0	MERGED:   17277018	TO_CACHE:    7227691

STLB Hit, L1D data hit: 0
STLB Hit, L2C data hit: 0
STLB Hit, LLC data hit: 0
STLB Hit, LLC data miss: 0
STLB STLB hints to L2: 0
L1D TOTAL     ACCESS:   57326571  HIT:   56785753  MISS:     540818  HIT %:    99.0566  MISS %:   0.943398   MPKI: 2.70409
L1D LOAD      ACCESS:   23195911  HIT:   22960891  MISS:     235020  HIT %:    98.9868  MISS %:     1.0132   MPKI: 1.1751
L1D RFO       ACCESS:   12640880  HIT:   12490086  MISS:     150794  HIT %:    98.8071  MISS %:    1.19291   MPKI: 0.75397
L1D PREFETCH  ACCESS:   21489780  HIT:   21334776  MISS:     155004  HIT %:    99.2787  MISS %:   0.721292   MPKI: 0.77502
L1D PREFETCH  REQUESTED:   62017446  ISSUED:   50481207  USEFUL:     133569  USELESS:      21467
L1D USEFUL LOAD PREFETCHES:     133569 PREFETCH ISSUED TO LOWER LEVEL:    2630478  ACCURACY: 5.07775
L1D TIMELY PREFETCHES:     133569 LATE PREFETCHES: 8702 DROPPED PREFETCHES: 184267
L1D PREFETCHES SAME FILL-ORIGIN LEVEL: 164165 DIFFERENT FILL-ORIGIN LEVEL: 2466313
L1D AVERAGE MISS LATENCY: 97.011 cycles
L1D RQ	ACCESS:   41889573	FORWARD:          0	MERGED:   18586247	TO_CACHE:   23231468
L1D WQ	ACCESS:   13113790	FORWARD:      71889	MERGED:      37358	TO_CACHE:   13076432
L1D PQ	ACCESS:   26226757	FORWARD:          0	MERGED:    1972276	TO_CACHE:   24254450

L1D UNIQUE REGIONS ACCESSED: 0
L1D REGIONS CONFLICTS: 0
L1D Cross Page Prefetch Requests: 8015436
L1D Same Page Prefetch Requests: 20712428
L1D ROI Sum of L1D PQ occupancy: 372829392
L1D PREFETCHES PUSHED FROM L2C: 0
L1I TOTAL     ACCESS:   35610758  HIT:   34794052  MISS:     816706  HIT %:    97.7066  MISS %:    2.29342   MPKI: 4.08353
L1I LOAD      ACCESS:   35610758  HIT:   34794052  MISS:     816706  HIT %:    97.7066  MISS %:    2.29342   MPKI: 4.08353
L1I PREFETCH  REQUESTED:          0  ISSUED:          0  USEFUL:          0  USELESS:          0
L1I USEFUL LOAD PREFETCHES:          0 PREFETCH ISSUED TO LOWER LEVEL:          0  ACCURACY: -nan
L1I TIMELY PREFETCHES:          0 LATE PREFETCHES: 0 DROPPED PREFETCHES: 0
L1I PREFETCHES SAME FILL-ORIGIN LEVEL: 0 DIFFERENT FILL-ORIGIN LEVEL: 0
L1I AVERAGE MISS LATENCY: 14.98 cycles
L1I RQ	ACCESS:   46975314	FORWARD:          0	MERGED:   10957217	TO_CACHE:   36018097

BTB TOTAL     ACCESS:    7106771  HIT:    6730891  MISS:     375880  HIT %:     94.711  MISS %:    5.28904   MPKI: 1.8794
BTB BRANCH_DIRECT_JUMP	ACCESS:     386612  HIT:     386319  MISS:        293
BTB BRANCH_INDIRECT	ACCESS:      10313  HIT:       9130  MISS:       1183
BTB BRANCH_CONDITIONAL	ACCESS:    5707725  HIT:    5706213  MISS:       1512
BTB BRANCH_DIRECT_CALL	ACCESS:     301380  HIT:     300487  MISS:        893
BTB BRANCH_INDIRECT_CALL	ACCESS:     199681  HIT:     187417  MISS:      12264
BTB BRANCH_RETURN	ACCESS:     501060  HIT:     141325  MISS:     359735
BTB BRANCH_OTHER ACCESS:          0  HIT:          0  MISS:          0

L2C TOTAL     ACCESS:    4005868  HIT:    3655316  MISS:     350552  HIT %:     91.249  MISS %:    8.75096   MPKI: 1.75276
L2C LOAD      ACCESS:    1043024  HIT:     964936  MISS:      78088  HIT %:    92.5133  MISS %:    7.48669   MPKI: 0.39044
L2C DATA LOAD MPKI: 0.33533
L2C INSTRUCTION LOAD MPKI: 0.05511
L2C RFO       ACCESS:     150709  HIT:      48936  MISS:     101773  HIT %:    32.4705  MISS %:    67.5295   MPKI: 0.508865
L2C PREFETCH  ACCESS:    2525707  HIT:    2359536  MISS:     166171  HIT %:    93.4208  MISS %:    6.57919   MPKI: 0.830855
L2C DATA PREFETCH MPKI: 0.830855
L2C INSTRUCTION PREFETCH MPKI: 0
L2C WRITEBACK ACCESS:     188396  HIT:     185116  MISS:       3280  HIT %:     98.259  MISS %:    1.74101   MPKI: 0.0164
L2C LOAD TRANSLATION ACCESS:       3982  HIT:       3314  MISS:        668  HIT %:    83.2245  MISS %:    16.7755   MPKI: 0.00334
L2C TRANSLATION FROM L1D PREFETCHER ACCESS:      94050  HIT:      93478  MISS:        572  HIT %:    99.3918  MISS %:   0.608187   MPKI: 0.00286
L2C PREFETCH  REQUESTED:          0  ISSUED:          0  USEFUL:      33732  USELESS:     133401
L2C USEFUL LOAD PREFETCHES:      33732 PREFETCH ISSUED TO LOWER LEVEL:     172215  ACCURACY: 19.5871
L2C TIMELY PREFETCHES:      33732 LATE PREFETCHES: 6044 DROPPED PREFETCHES: 0
L2C PREFETCHES SAME FILL-ORIGIN LEVEL: 118078 DIFFERENT FILL-ORIGIN LEVEL: 0
L2C AVERAGE MISS LATENCY: 186.266 cycles
L2C RQ	ACCESS:    1291850	FORWARD:          0	MERGED:          0	TO_CACHE:    1291765
L2C WQ	ACCESS:     188396	FORWARD:         85	MERGED:          0	TO_CACHE:     188396
L2C PQ	ACCESS:    2618267	FORWARD:          0	MERGED:        509	TO_CACHE:    2617758

L2C Instructions Evicting Data 10004
L2C Translations Evicting Data 1179
L2C Data Evicting Data 324200
L2C Instructions Evicting Instructions 980
L2C Translations Evicting Instructions 57
L2C Data Evicting Instructions 9619
L2C Instructions Evicting Translations 38
L2C Translations Evicting Translations 4
L2C Data Evicting Translations 1191
L2C Dense regions hint from L2: 0
PSCL5 TOTAL     ACCESS:      98026  HIT:      98026  MISS:          0  HIT %:        100  MISS %:          0   MPKI: 0
PSCL5 LOAD TRANSLATION ACCESS:       3976  HIT:       3976  MISS:          0  HIT %:        100  MISS %:          0   MPKI: 0
PSCL5 TRANSLATION FROM L1D PREFETCHER ACCESS:      94050  HIT:      94050  MISS:          0  HIT %:        100  MISS %:          0   MPKI: 0
PSCL5 PREFETCH  REQUESTED:          0  ISSUED:          0  USEFUL:          0  USELESS:          0
PSCL5 USEFUL LOAD PREFETCHES:          0 PREFETCH ISSUED TO LOWER LEVEL:          0  ACCURACY: -nan
PSCL5 TIMELY PREFETCHES:          0 LATE PREFETCHES: 0 DROPPED PREFETCHES: 0
PSCL5 PREFETCHES SAME FILL-ORIGIN LEVEL: 0 DIFFERENT FILL-ORIGIN LEVEL: 0

PSCL4 TOTAL     ACCESS:      98026  HIT:      98026  MISS:          0  HIT %:        100  MISS %:          0   MPKI: 0
PSCL4 LOAD TRANSLATION ACCESS:       3976  HIT:       3976  MISS:          0  HIT %:        100  MISS %:          0   MPKI: 0
PSCL4 TRANSLATION FROM L1D PREFETCHER ACCESS:      94050  HIT:      94050  MISS:          0  HIT %:        100  MISS %:          0   MPKI: 0
PSCL4 PREFETCH  REQUESTED:          0  ISSUED:          0  USEFUL:          0  USELESS:          0
PSCL4 USEFUL LOAD PREFETCHES:          0 PREFETCH ISSUED TO LOWER LEVEL:          0  ACCURACY: -nan
PSCL4 TIMELY PREFETCHES:          0 LATE PREFETCHES: 0 DROPPED PREFETCHES: 0
PSCL4 PREFETCHES SAME FILL-ORIGIN LEVEL: 0 DIFFERENT FILL-ORIGIN LEVEL: 0

PSCL3 TOTAL     ACCESS:      98026  HIT:      98026  MISS:          0  HIT %:        100  MISS %:          0   MPKI: 0
PSCL3 LOAD TRANSLATION ACCESS:       3976  HIT:       3976  MISS:          0  HIT %:        100  MISS %:          0   MPKI: 0
PSCL3 TRANSLATION FROM L1D PREFETCHER ACCESS:      94050  HIT:      94050  MISS:          0  HIT %:        100  MISS %:          0   MPKI: 0
PSCL3 PREFETCH  REQUESTED:          0  ISSUED:          0  USEFUL:          0  USELESS:          0
PSCL3 USEFUL LOAD PREFETCHES:          0 PREFETCH ISSUED TO LOWER LEVEL:          0  ACCURACY: -nan
PSCL3 TIMELY PREFETCHES:          0 LATE PREFETCHES: 0 DROPPED PREFETCHES: 0
PSCL3 PREFETCHES SAME FILL-ORIGIN LEVEL: 0 DIFFERENT FILL-ORIGIN LEVEL: 0

PSCL2 TOTAL     ACCESS:      98026  HIT:      98007  MISS:         19  HIT %:    99.9806  MISS %:  0.0193826   MPKI: 9.5e-05
PSCL2 LOAD TRANSLATION ACCESS:       3976  HIT:       3957  MISS:         19  HIT %:    99.5221  MISS %:   0.477867   MPKI: 9.5e-05
PSCL2 TRANSLATION FROM L1D PREFETCHER ACCESS:      94050  HIT:      94050  MISS:          0  HIT %:        100  MISS %:          0   MPKI: 0
PSCL2 PREFETCH  REQUESTED:          0  ISSUED:          0  USEFUL:          0  USELESS:          0
PSCL2 USEFUL LOAD PREFETCHES:          0 PREFETCH ISSUED TO LOWER LEVEL:          0  ACCURACY: -nan
PSCL2 TIMELY PREFETCHES:          0 LATE PREFETCHES: 0 DROPPED PREFETCHES: 0
PSCL2 PREFETCHES SAME FILL-ORIGIN LEVEL: 0 DIFFERENT FILL-ORIGIN LEVEL: 0

LLC TOTAL     ACCESS:     473103  HIT:     216776  MISS:     256327  HIT %:      45.82  MISS %:      54.18   MPKI: 1.28163
LLC LOAD      ACCESS:      72046  HIT:      28375  MISS:      43671  HIT %:    39.3846  MISS %:    60.6154   MPKI: 0.218355
LLC RFO       ACCESS:     101770  HIT:       1538  MISS:     100232  HIT %:    1.51125  MISS %:    98.4887   MPKI: 0.50116
LLC PREFETCH  ACCESS:     172215  HIT:      63906  MISS:     108309  HIT %:    37.1083  MISS %:    62.8917   MPKI: 0.541545
LLC WRITEBACK ACCESS:     125832  HIT:     122417  MISS:       3415  HIT %:    97.2861  MISS %:    2.71394   MPKI: 0.017075
LLC LOAD TRANSLATION ACCESS:        668  HIT:        254  MISS:        414  HIT %:     38.024  MISS %:     61.976   MPKI: 0.00207
LLC TRANSLATION FROM L1D PREFETCHER ACCESS:        572  HIT:        286  MISS:        286  HIT %:         50  MISS %:         50   MPKI: 0.00143
LLC PREFETCH  REQUESTED:          0  ISSUED:          0  USEFUL:       8409  USELESS:     101131
LLC USEFUL LOAD PREFETCHES:       8409 PREFETCH ISSUED TO LOWER LEVEL:     108309  ACCURACY: 7.7639
LLC TIMELY PREFETCHES:       8409 LATE PREFETCHES: 0 DROPPED PREFETCHES: 0
LLC PREFETCHES SAME FILL-ORIGIN LEVEL: 0 DIFFERENT FILL-ORIGIN LEVEL: 0
LLC AVERAGE MISS LATENCY: 216.555 cycles
LLC RQ	ACCESS:     175057	FORWARD:          0	MERGED:          0	TO_CACHE:     175056
LLC WQ	ACCESS:     125832	FORWARD:          1	MERGED:          0	TO_CACHE:     125832
LLC PQ	ACCESS:     172215	FORWARD:          0	MERGED:          0	TO_CACHE:     172215

LLC Dense regions hint to LLC: 0

RAW hits: 503069
Loads Generated: 42392645
Loads sent to L1D: 41889573
Stores Generated: 13113788
Stores sent to L1D: 13113790
Major fault: 0 Minor fault: 4626
Allocated PAGES: 4626

DRAM Statistics
 CHANNEL 0
 RQ ROW_BUFFER_HIT:      84098  ROW_BUFFER_MISS:     168796
 DBUS_CONGESTED:         58
 WQ ROW_BUFFER_HIT:      14676  ROW_BUFFER_MISS:     110082  FULL:          0

 AVG_CONGESTED_CYCLE: 4
 All warmup complete: 2
Channel 0 Bank busy for read cycles: 0
Channel 0 Bank busy for write cycles: 0
Channel 0
Rank 0
0banks busy for read cycles: 227392944
0banks busy for write cycles: 39550
1banks busy for read cycles: 9295812
1banks busy for write cycles: 5149049
2banks busy for read cycles: 2658828
2banks busy for write cycles: 845509
3banks busy for read cycles: 1055962
3banks busy for write cycles: 493055
4banks busy for read cycles: 508460
4banks busy for write cycles: 361615
5banks busy for read cycles: 267985
5banks busy for write cycles: 245022
6banks busy for read cycles: 281239
6banks busy for write cycles: 183578
7banks busy for read cycles: 307186
7banks busy for write cycles: 215659
8banks busy for read cycles: 631875
8banks busy for write cycles: 1033918

CPU 0 Branch Prediction Accuracy: 98.5384% MPKI: 0.505315 Average ROB Occupancy at Mispredict: 19.3955
Branch types
NOT_BRANCH: 191686350 95.8432%
BRANCH_DIRECT_JUMP: 386612 0.193306%
BRANCH_INDIRECT: 10313 0.0051565%
BRANCH_CONDITIONAL: 6914317 3.45716%
BRANCH_DIRECT_CALL: 301380 0.15069%
BRANCH_INDIRECT_CALL: 199681 0.0998405%
BRANCH_RETURN: 501060 0.25053%
BRANCH_OTHER: 0 0%

DRAM PAGES: 1048576
Allocated PAGES: 4626
