526208 bits of metadata so far, 405638 left out of 526336 total budget
table size is 13521 bits, 2253 entries for 5 bit, 1931 entries for 6 bit
526208 total bits (64.23KB)

*** ChampSim Multicore Out-of-Order Simulator ***

Warmup Instructions: 50000000
Simulation Instructions: 200000000
Number of CPUs: 1
LLC sets: 2048
LLC ways: 16
Off-chip DRAM Size: 4096 MB Channels: 1 Width: 64-bit Data Rate: 6400 MT/s
argv[0]: ./ChampSim/Berti/bin/multiperspective_perceptron-no-vberti-no-no-no-no-no-lru-lru-lru-srrip-drrip-lru-lru-lru-1core-no
argv[1]: -warmup_instructions
argv[2]: 50000000
argv[3]: -simulation_instructions
argv[4]: 200000000
argv[5]: -traces
argv[6]: traces/spec2k17_ten/648.exchange2_s-1227B.champsimtrace.xz
CPU 0 runs traces/spec2k17_ten/648.exchange2_s-1227B.champsimtrace.xz
.xz
CPU 0 Multiperspective perceptron branch predictor
BTB has LRU replacement policy
ITLB has LRU replacement policy
DTLB has LRU replacement policy
STLB has LRU replacement policy
L1I has LRU replacement policy
History Sets: 8
History Ways: 16
BERTI Size: 16
BERTI Stride Size: 16
L1D has LRU replacement policy
Initialize SRRIP state for L2C
Initialize DRRIP state for LLC
Heartbeat CPU 0 instructions: 10000001 cycles: 2721307 heartbeat IPC: 3.67471 cumulative IPC: 3.67471 (Simulation time: 0 hr 3 min 0 sec) 
Heartbeat CPU 0 instructions: 20000003 cycles: 5456469 heartbeat IPC: 3.65609 cumulative IPC: 3.66537 (Simulation time: 0 hr 4 min 48 sec) 
Heartbeat CPU 0 instructions: 30000002 cycles: 8137672 heartbeat IPC: 3.72967 cumulative IPC: 3.68656 (Simulation time: 0 hr 6 min 24 sec) 
Heartbeat CPU 0 instructions: 40000001 cycles: 10841936 heartbeat IPC: 3.69786 cumulative IPC: 3.68938 (Simulation time: 0 hr 7 min 56 sec) 
Heartbeat CPU 0 instructions: 50000001 cycles: 13507602 heartbeat IPC: 3.75141 cumulative IPC: 3.70162 (Simulation time: 0 hr 11 min 17 sec) 

Warmup complete CPU 0 instructions: 50000001 cycles: 13507602 (Simulation time: 0 hr 11 min 17 sec) 

Heartbeat CPU 0 instructions: 60000002 cycles: 24531183 heartbeat IPC: 0.907146 cumulative IPC: 0.907146 (Simulation time: 0 hr 15 min 49 sec) 
Heartbeat CPU 0 instructions: 70000002 cycles: 33584358 heartbeat IPC: 1.10458 cumulative IPC: 0.996177 (Simulation time: 0 hr 19 min 17 sec) 
Heartbeat CPU 0 instructions: 80000001 cycles: 42563717 heartbeat IPC: 1.11367 cumulative IPC: 1.03248 (Simulation time: 0 hr 23 min 13 sec) 
Heartbeat CPU 0 instructions: 90000000 cycles: 51500312 heartbeat IPC: 1.11899 cumulative IPC: 1.05283 (Simulation time: 0 hr 27 min 25 sec) 
Heartbeat CPU 0 instructions: 100000002 cycles: 60460529 heartbeat IPC: 1.11604 cumulative IPC: 1.0649 (Simulation time: 0 hr 31 min 3 sec) 
Heartbeat CPU 0 instructions: 110000000 cycles: 69393106 heartbeat IPC: 1.1195 cumulative IPC: 1.07362 (Simulation time: 0 hr 34 min 39 sec) 
Heartbeat CPU 0 instructions: 120000003 cycles: 78424996 heartbeat IPC: 1.10719 cumulative IPC: 1.07829 (Simulation time: 0 hr 38 min 25 sec) 
Heartbeat CPU 0 instructions: 130000000 cycles: 87406631 heartbeat IPC: 1.11338 cumulative IPC: 1.08256 (Simulation time: 0 hr 41 min 40 sec) 
Heartbeat CPU 0 instructions: 140000000 cycles: 96330023 heartbeat IPC: 1.12065 cumulative IPC: 1.08666 (Simulation time: 0 hr 45 min 36 sec) 
Heartbeat CPU 0 instructions: 150000000 cycles: 106325661 heartbeat IPC: 1.00044 cumulative IPC: 1.07738 (Simulation time: 0 hr 49 min 25 sec) 
Heartbeat CPU 0 instructions: 160000003 cycles: 118429223 heartbeat IPC: 0.826203 cumulative IPC: 1.0484 (Simulation time: 0 hr 53 min 54 sec) 
Heartbeat CPU 0 instructions: 170000000 cycles: 129848430 heartbeat IPC: 0.875717 cumulative IPC: 1.03145 (Simulation time: 0 hr 58 min 21 sec) 
Heartbeat CPU 0 instructions: 180000003 cycles: 138739137 heartbeat IPC: 1.12477 cumulative IPC: 1.03808 (Simulation time: 1 hr 2 min 16 sec) 
Heartbeat CPU 0 instructions: 190000003 cycles: 147486893 heartbeat IPC: 1.14315 cumulative IPC: 1.04494 (Simulation time: 1 hr 5 min 34 sec) 
Heartbeat CPU 0 instructions: 200000003 cycles: 156223412 heartbeat IPC: 1.14462 cumulative IPC: 1.05104 (Simulation time: 1 hr 9 min 27 sec) 
Heartbeat CPU 0 instructions: 210000000 cycles: 165076811 heartbeat IPC: 1.12951 cumulative IPC: 1.05562 (Simulation time: 1 hr 13 min 4 sec) 
Heartbeat CPU 0 instructions: 220000000 cycles: 177120601 heartbeat IPC: 0.830303 cumulative IPC: 1.03904 (Simulation time: 1 hr 17 min 21 sec) 
Heartbeat CPU 0 instructions: 230000001 cycles: 188940147 heartbeat IPC: 0.846056 cumulative IPC: 1.02604 (Simulation time: 1 hr 21 min 26 sec) 
Heartbeat CPU 0 instructions: 240000003 cycles: 199304362 heartbeat IPC: 0.964859 cumulative IPC: 1.02262 (Simulation time: 1 hr 25 min 31 sec) 
Heartbeat CPU 0 instructions: 250000001 cycles: 209621159 heartbeat IPC: 0.969293 cumulative IPC: 1.01982 (Simulation time: 1 hr 28 min 51 sec) 
Finished CPU 0 instructions: 200000000 cycles: 196113557 cumulative IPC: 1.01982 (Simulation time: 1 hr 28 min 51 sec) 

ChampSim completed all CPUs

Region of Interest Statistics

CPU 0 cumulative IPC: 1.01982 instructions: 200000000 cycles: 196113557
ITLB TOTAL     ACCESS:   30278810  HIT:   30278810  MISS:          0  HIT %:        100  MISS %:          0   MPKI: 0
ITLB LOAD TRANSLATION ACCESS:   30278810  HIT:   30278810  MISS:          0  HIT %:        100  MISS %:          0   MPKI: 0
ITLB PREFETCH  REQUESTED:          0  ISSUED:          0  USEFUL:          0  USELESS:          0
ITLB USEFUL LOAD PREFETCHES:          0 PREFETCH ISSUED TO LOWER LEVEL:          0  ACCURACY: -nan
ITLB TIMELY PREFETCHES:          0 LATE PREFETCHES: 0 DROPPED PREFETCHES: 0
ITLB PREFETCHES SAME FILL-ORIGIN LEVEL: 0 DIFFERENT FILL-ORIGIN LEVEL: 0
ITLB AVERAGE MISS LATENCY: -nan cycles
ITLB RQ	ACCESS:   36617283	FORWARD:          0	MERGED:    6338474	TO_CACHE:   30278809

DTLB TOTAL     ACCESS:   34701805  HIT:   34701805  MISS:          0  HIT %:        100  MISS %:          0   MPKI: 0
DTLB LOAD TRANSLATION ACCESS:   34701805  HIT:   34701805  MISS:          0  HIT %:        100  MISS %:          0   MPKI: 0
DTLB PREFETCH  REQUESTED:          0  ISSUED:          0  USEFUL:          0  USELESS:          0
DTLB USEFUL LOAD PREFETCHES:          0 PREFETCH ISSUED TO LOWER LEVEL:          0  ACCURACY: -nan
DTLB TIMELY PREFETCHES:          0 LATE PREFETCHES: 0 DROPPED PREFETCHES: 0
DTLB PREFETCHES SAME FILL-ORIGIN LEVEL: 0 DIFFERENT FILL-ORIGIN LEVEL: 0
DTLB AVERAGE MISS LATENCY: -nan cycles
DTLB RQ	ACCESS:   54792172	FORWARD:          0	MERGED:   20090366	TO_CACHE:   34701806

STLB TOTAL     ACCESS:     618968  HIT:     618968  MISS:          0  HIT %:        100  MISS %:          0   MPKI: 0
STLB TRANSLATION FROM L1D PREFETCHER ACCESS:     618968  HIT:     618968  MISS:          0  HIT %:        100  MISS %:          0   MPKI: 0
STLB PREFETCH  REQUESTED:          0  ISSUED:          0  USEFUL:          0  USELESS:          0
STLB USEFUL LOAD PREFETCHES:          0 PREFETCH ISSUED TO LOWER LEVEL:          0  ACCURACY: -nan
STLB TIMELY PREFETCHES:          0 LATE PREFETCHES: 0 DROPPED PREFETCHES: 0
STLB PREFETCHES SAME FILL-ORIGIN LEVEL: 0 DIFFERENT FILL-ORIGIN LEVEL: 0
STLB AVERAGE MISS LATENCY: -nan cycles
STLB RQ	ACCESS:    2030291	FORWARD:          0	MERGED:    1411323	TO_CACHE:     618968

STLB Hit, L1D data hit: 0
STLB Hit, L2C data hit: 0
STLB Hit, LLC data hit: 0
STLB Hit, LLC data miss: 0
STLB STLB hints to L2: 0
L1D TOTAL     ACCESS:   56743892  HIT:   56743881  MISS:         11  HIT %:        100  MISS %: 1.93853e-05   MPKI: 5.5e-05
L1D LOAD      ACCESS:   25816964  HIT:   25816953  MISS:         11  HIT %:        100  MISS %: 4.26076e-05   MPKI: 5.5e-05
L1D RFO       ACCESS:   28975208  HIT:   28975208  MISS:          0  HIT %:        100  MISS %:          0   MPKI: 0
L1D PREFETCH  ACCESS:    1951720  HIT:    1951720  MISS:          0  HIT %:        100  MISS %:          0   MPKI: 0
L1D PREFETCH  REQUESTED:    5016191  ISSUED:    4965095  USEFUL:          0  USELESS:          0
L1D USEFUL LOAD PREFETCHES:          0 PREFETCH ISSUED TO LOWER LEVEL:      78571  ACCURACY: 0
L1D TIMELY PREFETCHES:          0 LATE PREFETCHES: 0 DROPPED PREFETCHES: 0
L1D PREFETCHES SAME FILL-ORIGIN LEVEL: 0 DIFFERENT FILL-ORIGIN LEVEL: 78571
L1D AVERAGE MISS LATENCY: 142.273 cycles
L1D RQ	ACCESS:   41160504	FORWARD:          0	MERGED:   15121649	TO_CACHE:   25816965
L1D WQ	ACCESS:   32423916	FORWARD:     221890	MERGED:    3448709	TO_CACHE:   28975207
L1D PQ	ACCESS:    2934804	FORWARD:          0	MERGED:     904513	TO_CACHE:    2030291

L1D UNIQUE REGIONS ACCESSED: 0
L1D REGIONS CONFLICTS: 0
L1D Cross Page Prefetch Requests: 980514
L1D Same Page Prefetch Requests: 2572713
L1D ROI Sum of L1D PQ occupancy: 29674814
L1D PREFETCHES PUSHED FROM L2C: 0
L1I TOTAL     ACCESS:   36602655  HIT:   36574306  MISS:      28349  HIT %:    99.9225  MISS %:  0.0774507   MPKI: 0.141745
L1I LOAD      ACCESS:   36602655  HIT:   36574306  MISS:      28349  HIT %:    99.9225  MISS %:  0.0774507   MPKI: 0.141745
L1I PREFETCH  REQUESTED:          0  ISSUED:          0  USEFUL:          0  USELESS:          0
L1I USEFUL LOAD PREFETCHES:          0 PREFETCH ISSUED TO LOWER LEVEL:          0  ACCURACY: -nan
L1I TIMELY PREFETCHES:          0 LATE PREFETCHES: 0 DROPPED PREFETCHES: 0
L1I PREFETCHES SAME FILL-ORIGIN LEVEL: 0 DIFFERENT FILL-ORIGIN LEVEL: 0
L1I AVERAGE MISS LATENCY: 14.0973 cycles
L1I RQ	ACCESS:   54973506	FORWARD:          0	MERGED:   18356223	TO_CACHE:   36617283

BTB TOTAL     ACCESS:   25706164  HIT:   25664544  MISS:      41620  HIT %:    99.8381  MISS %:   0.161907   MPKI: 0.2081
BTB BRANCH_DIRECT_JUMP	ACCESS:    2382754  HIT:    2382629  MISS:        125
BTB BRANCH_INDIRECT	ACCESS:          0  HIT:          0  MISS:          0
BTB BRANCH_CONDITIONAL	ACCESS:   23106873  HIT:   23106052  MISS:        821
BTB BRANCH_DIRECT_CALL	ACCESS:     108268  HIT:     108185  MISS:         83
BTB BRANCH_INDIRECT_CALL	ACCESS:          0  HIT:          0  MISS:          0
BTB BRANCH_RETURN	ACCESS:     108269  HIT:      67678  MISS:      40591
BTB BRANCH_OTHER ACCESS:          0  HIT:          0  MISS:          0

L2C TOTAL     ACCESS:     106931  HIT:     106901  MISS:         30  HIT %:    99.9719  MISS %:  0.0280555   MPKI: 0.00015
L2C LOAD      ACCESS:      28360  HIT:      28330  MISS:         30  HIT %:    99.8942  MISS %:   0.105783   MPKI: 0.00015
L2C DATA LOAD MPKI: 5.5e-05
L2C INSTRUCTION LOAD MPKI: 9.5e-05
L2C PREFETCH  ACCESS:      78571  HIT:      78571  MISS:          0  HIT %:        100  MISS %:          0   MPKI: 0
L2C DATA PREFETCH MPKI: 0
L2C INSTRUCTION PREFETCH MPKI: 0
L2C PREFETCH  REQUESTED:          0  ISSUED:          0  USEFUL:          0  USELESS:          0
L2C USEFUL LOAD PREFETCHES:          0 PREFETCH ISSUED TO LOWER LEVEL:          0  ACCURACY: -nan
L2C TIMELY PREFETCHES:          0 LATE PREFETCHES: 0 DROPPED PREFETCHES: 0
L2C PREFETCHES SAME FILL-ORIGIN LEVEL: 0 DIFFERENT FILL-ORIGIN LEVEL: 0
L2C AVERAGE MISS LATENCY: 133.333 cycles
L2C RQ	ACCESS:      28360	FORWARD:          0	MERGED:          0	TO_CACHE:      28360
L2C PQ	ACCESS:      78571	FORWARD:          0	MERGED:          0	TO_CACHE:      78571

L2C Instructions Evicting Data 0
L2C Translations Evicting Data 0
L2C Data Evicting Data 0
L2C Instructions Evicting Instructions 0
L2C Translations Evicting Instructions 0
L2C Data Evicting Instructions 0
L2C Instructions Evicting Translations 0
L2C Translations Evicting Translations 0
L2C Data Evicting Translations 0
L2C Dense regions hint from L2: 0
PSCL5 PREFETCH  REQUESTED:          0  ISSUED:          0  USEFUL:          0  USELESS:          0
PSCL5 USEFUL LOAD PREFETCHES:          0 PREFETCH ISSUED TO LOWER LEVEL:          0  ACCURACY: -nan
PSCL5 TIMELY PREFETCHES:          0 LATE PREFETCHES: 0 DROPPED PREFETCHES: 0
PSCL5 PREFETCHES SAME FILL-ORIGIN LEVEL: 0 DIFFERENT FILL-ORIGIN LEVEL: 0

PSCL4 PREFETCH  REQUESTED:          0  ISSUED:          0  USEFUL:          0  USELESS:          0
PSCL4 USEFUL LOAD PREFETCHES:          0 PREFETCH ISSUED TO LOWER LEVEL:          0  ACCURACY: -nan
PSCL4 TIMELY PREFETCHES:          0 LATE PREFETCHES: 0 DROPPED PREFETCHES: 0
PSCL4 PREFETCHES SAME FILL-ORIGIN LEVEL: 0 DIFFERENT FILL-ORIGIN LEVEL: 0

PSCL3 PREFETCH  REQUESTED:          0  ISSUED:          0  USEFUL:          0  USELESS:          0
PSCL3 USEFUL LOAD PREFETCHES:          0 PREFETCH ISSUED TO LOWER LEVEL:          0  ACCURACY: -nan
PSCL3 TIMELY PREFETCHES:          0 LATE PREFETCHES: 0 DROPPED PREFETCHES: 0
PSCL3 PREFETCHES SAME FILL-ORIGIN LEVEL: 0 DIFFERENT FILL-ORIGIN LEVEL: 0

PSCL2 PREFETCH  REQUESTED:          0  ISSUED:          0  USEFUL:          0  USELESS:          0
PSCL2 USEFUL LOAD PREFETCHES:          0 PREFETCH ISSUED TO LOWER LEVEL:          0  ACCURACY: -nan
PSCL2 TIMELY PREFETCHES:          0 LATE PREFETCHES: 0 DROPPED PREFETCHES: 0
PSCL2 PREFETCHES SAME FILL-ORIGIN LEVEL: 0 DIFFERENT FILL-ORIGIN LEVEL: 0

LLC TOTAL     ACCESS:         30  HIT:          0  MISS:         30  HIT %:          0  MISS %:        100   MPKI: 0.00015
LLC LOAD      ACCESS:         30  HIT:          0  MISS:         30  HIT %:          0  MISS %:        100   MPKI: 0.00015
LLC PREFETCH  REQUESTED:          0  ISSUED:          0  USEFUL:          0  USELESS:          0
LLC USEFUL LOAD PREFETCHES:          0 PREFETCH ISSUED TO LOWER LEVEL:          0  ACCURACY: -nan
LLC TIMELY PREFETCHES:          0 LATE PREFETCHES: 0 DROPPED PREFETCHES: 0
LLC PREFETCHES SAME FILL-ORIGIN LEVEL: 0 DIFFERENT FILL-ORIGIN LEVEL: 0
LLC AVERAGE MISS LATENCY: 103.333 cycles
LLC RQ	ACCESS:         30	FORWARD:          0	MERGED:          0	TO_CACHE:         30

LLC Dense regions hint to LLC: 0

RAW hits: 6329438
Loads Generated: 47489942
Loads sent to L1D: 41160504
Stores Generated: 32423910
Stores sent to L1D: 32423916
Major fault: 0 Minor fault: 58
Allocated PAGES: 58

DRAM Statistics
 CHANNEL 0
 RQ ROW_BUFFER_HIT:         20  ROW_BUFFER_MISS:         10
 DBUS_CONGESTED:          0
 WQ ROW_BUFFER_HIT:          0  ROW_BUFFER_MISS:          0  FULL:          0

 AVG_CONGESTED_CYCLE: -
 All warmup complete: 2
Channel 0 Bank busy for read cycles: 0
Channel 0 Bank busy for write cycles: 0
Channel 0
Rank 0
0banks busy for read cycles: 196111253
0banks busy for write cycles: 0
1banks busy for read cycles: 2110
1banks busy for write cycles: 0
2banks busy for read cycles: 195
2banks busy for write cycles: 0
3banks busy for read cycles: 0
3banks busy for write cycles: 0
4banks busy for read cycles: 0
4banks busy for write cycles: 0
5banks busy for read cycles: 0
5banks busy for write cycles: 0
6banks busy for read cycles: 0
6banks busy for write cycles: 0
7banks busy for read cycles: 0
7banks busy for write cycles: 0
8banks busy for read cycles: 0
8banks busy for write cycles: 0

CPU 0 Branch Prediction Accuracy: 99.335% MPKI: 0.863395 Average ROB Occupancy at Mispredict: 33.2657
Branch types
NOT_BRANCH: 171434355 85.7172%
BRANCH_DIRECT_JUMP: 2382754 1.19138%
BRANCH_INDIRECT: 0 0%
BRANCH_CONDITIONAL: 25966018 12.983%
BRANCH_DIRECT_CALL: 108268 0.054134%
BRANCH_INDIRECT_CALL: 0 0%
BRANCH_RETURN: 108269 0.0541345%
BRANCH_OTHER: 0 0%

DRAM PAGES: 1048576
Allocated PAGES: 58
