526208 bits of metadata so far, 405638 left out of 526336 total budget
table size is 13521 bits, 2253 entries for 5 bit, 1931 entries for 6 bit
526208 total bits (64.23KB)

*** ChampSim Multicore Out-of-Order Simulator ***

Warmup Instructions: 50000000
Simulation Instructions: 200000000
Number of CPUs: 1
LLC sets: 2048
LLC ways: 16
Off-chip DRAM Size: 4096 MB Channels: 1 Width: 64-bit Data Rate: 6400 MT/s
argv[0]: ./ChampSim/Berti/bin/multiperspective_perceptron-no-vberti-no-no-no-no-no-lru-lru-lru-srrip-drrip-lru-lru-lru-1core-no
argv[1]: -warmup_instructions
argv[2]: 50000000
argv[3]: -simulation_instructions
argv[4]: 200000000
argv[5]: -traces
argv[6]: traces/spec2k17_ten/648.exchange2_s-1247B.champsimtrace.xz
CPU 0 runs traces/spec2k17_ten/648.exchange2_s-1247B.champsimtrace.xz
.xz
CPU 0 Multiperspective perceptron branch predictor
BTB has LRU replacement policy
ITLB has LRU replacement policy
DTLB has LRU replacement policy
STLB has LRU replacement policy
L1I has LRU replacement policy
History Sets: 8
History Ways: 16
BERTI Size: 16
BERTI Stride Size: 16
L1D has LRU replacement policy
Initialize SRRIP state for L2C
Initialize DRRIP state for LLC
Heartbeat CPU 0 instructions: 10000000 cycles: 2680953 heartbeat IPC: 3.73002 cumulative IPC: 3.73002 (Simulation time: 0 hr 5 min 21 sec) 
Heartbeat CPU 0 instructions: 20000001 cycles: 5360978 heartbeat IPC: 3.73131 cumulative IPC: 3.73066 (Simulation time: 0 hr 6 min 59 sec) 
Heartbeat CPU 0 instructions: 30000001 cycles: 8042253 heartbeat IPC: 3.72957 cumulative IPC: 3.7303 (Simulation time: 0 hr 8 min 32 sec) 
Heartbeat CPU 0 instructions: 40000003 cycles: 10723734 heartbeat IPC: 3.72928 cumulative IPC: 3.73004 (Simulation time: 0 hr 10 min 48 sec) 
Heartbeat CPU 0 instructions: 50000000 cycles: 13404977 heartbeat IPC: 3.72961 cumulative IPC: 3.72996 (Simulation time: 0 hr 12 min 18 sec) 

Warmup complete CPU 0 instructions: 50000004 cycles: 13404978 (Simulation time: 0 hr 12 min 18 sec) 

Heartbeat CPU 0 instructions: 60000000 cycles: 22675859 heartbeat IPC: 1.07865 cumulative IPC: 1.07865 (Simulation time: 0 hr 16 min 10 sec) 
Heartbeat CPU 0 instructions: 70000000 cycles: 32453470 heartbeat IPC: 1.02274 cumulative IPC: 1.04995 (Simulation time: 0 hr 18 min 40 sec) 
Heartbeat CPU 0 instructions: 80000001 cycles: 41514943 heartbeat IPC: 1.10357 cumulative IPC: 1.06724 (Simulation time: 0 hr 22 min 56 sec) 
Heartbeat CPU 0 instructions: 90000002 cycles: 50605965 heartbeat IPC: 1.09999 cumulative IPC: 1.07524 (Simulation time: 0 hr 26 min 38 sec) 
Heartbeat CPU 0 instructions: 100000000 cycles: 59606443 heartbeat IPC: 1.11105 cumulative IPC: 1.08222 (Simulation time: 0 hr 29 min 51 sec) 
Heartbeat CPU 0 instructions: 110000000 cycles: 68663677 heartbeat IPC: 1.10409 cumulative IPC: 1.0858 (Simulation time: 0 hr 33 min 11 sec) 
Heartbeat CPU 0 instructions: 120000002 cycles: 78489382 heartbeat IPC: 1.01774 cumulative IPC: 1.07553 (Simulation time: 0 hr 36 min 54 sec) 
Heartbeat CPU 0 instructions: 130000003 cycles: 87593015 heartbeat IPC: 1.09846 cumulative IPC: 1.07834 (Simulation time: 0 hr 40 min 26 sec) 
Heartbeat CPU 0 instructions: 140000000 cycles: 96603106 heartbeat IPC: 1.10987 cumulative IPC: 1.08176 (Simulation time: 0 hr 44 min 17 sec) 
Heartbeat CPU 0 instructions: 150000002 cycles: 105684038 heartbeat IPC: 1.10121 cumulative IPC: 1.08367 (Simulation time: 0 hr 48 min 43 sec) 
Heartbeat CPU 0 instructions: 160000000 cycles: 114680818 heartbeat IPC: 1.11151 cumulative IPC: 1.08614 (Simulation time: 0 hr 52 min 44 sec) 
Heartbeat CPU 0 instructions: 170000000 cycles: 123649718 heartbeat IPC: 1.11496 cumulative IPC: 1.08849 (Simulation time: 0 hr 56 min 34 sec) 
Heartbeat CPU 0 instructions: 180000000 cycles: 132754240 heartbeat IPC: 1.09836 cumulative IPC: 1.08924 (Simulation time: 1 hr 0 min 6 sec) 
Heartbeat CPU 0 instructions: 190000000 cycles: 141850770 heartbeat IPC: 1.09932 cumulative IPC: 1.08995 (Simulation time: 1 hr 3 min 34 sec) 
Heartbeat CPU 0 instructions: 200000002 cycles: 150895529 heartbeat IPC: 1.10561 cumulative IPC: 1.09098 (Simulation time: 1 hr 7 min 13 sec) 
Heartbeat CPU 0 instructions: 210000000 cycles: 159922247 heartbeat IPC: 1.10782 cumulative IPC: 1.09202 (Simulation time: 1 hr 11 min 9 sec) 
Heartbeat CPU 0 instructions: 220000000 cycles: 168899277 heartbeat IPC: 1.11395 cumulative IPC: 1.09329 (Simulation time: 1 hr 14 min 52 sec) 
Heartbeat CPU 0 instructions: 230000002 cycles: 177939679 heartbeat IPC: 1.10615 cumulative IPC: 1.09399 (Simulation time: 1 hr 18 min 32 sec) 
Heartbeat CPU 0 instructions: 240000001 cycles: 186948760 heartbeat IPC: 1.10999 cumulative IPC: 1.09482 (Simulation time: 1 hr 22 min 19 sec) 
Heartbeat CPU 0 instructions: 250000003 cycles: 195911001 heartbeat IPC: 1.11579 cumulative IPC: 1.09585 (Simulation time: 1 hr 25 min 53 sec) 
Finished CPU 0 instructions: 200000003 cycles: 182506024 cumulative IPC: 1.09585 (Simulation time: 1 hr 25 min 53 sec) 

ChampSim completed all CPUs

Region of Interest Statistics

CPU 0 cumulative IPC: 1.09585 instructions: 200000003 cycles: 182506024
ITLB TOTAL     ACCESS:   29561992  HIT:   29561968  MISS:         24  HIT %:    99.9999  MISS %: 8.11853e-05   MPKI: 0.00012
ITLB LOAD TRANSLATION ACCESS:   29561992  HIT:   29561968  MISS:         24  HIT %:    99.9999  MISS %: 8.11853e-05   MPKI: 0.00012
ITLB PREFETCH  REQUESTED:          0  ISSUED:          0  USEFUL:          0  USELESS:          0
ITLB USEFUL LOAD PREFETCHES:          0 PREFETCH ISSUED TO LOWER LEVEL:          0  ACCURACY: -nan
ITLB TIMELY PREFETCHES:          0 LATE PREFETCHES: 0 DROPPED PREFETCHES: 0
ITLB PREFETCHES SAME FILL-ORIGIN LEVEL: 0 DIFFERENT FILL-ORIGIN LEVEL: 0
ITLB AVERAGE MISS LATENCY: 153.333 cycles
ITLB RQ	ACCESS:   36029088	FORWARD:          0	MERGED:    6467090	TO_CACHE:   29561998

DTLB TOTAL     ACCESS:   32963080  HIT:   32963068  MISS:         12  HIT %:        100  MISS %: 3.64044e-05   MPKI: 6e-05
DTLB LOAD TRANSLATION ACCESS:   32963080  HIT:   32963068  MISS:         12  HIT %:        100  MISS %: 3.64044e-05   MPKI: 6e-05
DTLB PREFETCH  REQUESTED:          0  ISSUED:          0  USEFUL:          0  USELESS:          0
DTLB USEFUL LOAD PREFETCHES:          0 PREFETCH ISSUED TO LOWER LEVEL:          0  ACCURACY: -nan
DTLB TIMELY PREFETCHES:          0 LATE PREFETCHES: 0 DROPPED PREFETCHES: 0
DTLB PREFETCHES SAME FILL-ORIGIN LEVEL: 0 DIFFERENT FILL-ORIGIN LEVEL: 0
DTLB AVERAGE MISS LATENCY: 169.667 cycles
DTLB RQ	ACCESS:   52700450	FORWARD:          0	MERGED:   19737367	TO_CACHE:   32963083

STLB TOTAL     ACCESS:         36  HIT:          0  MISS:         36  HIT %:          0  MISS %:        100   MPKI: 0.00018
STLB LOAD TRANSLATION ACCESS:         36  HIT:          0  MISS:         36  HIT %:          0  MISS %:        100   MPKI: 0.00018
STLB PREFETCH  REQUESTED:          0  ISSUED:          0  USEFUL:          0  USELESS:          0
STLB USEFUL LOAD PREFETCHES:          0 PREFETCH ISSUED TO LOWER LEVEL:          0  ACCURACY: -nan
STLB TIMELY PREFETCHES:          0 LATE PREFETCHES: 0 DROPPED PREFETCHES: 0
STLB PREFETCHES SAME FILL-ORIGIN LEVEL: 0 DIFFERENT FILL-ORIGIN LEVEL: 0
STLB AVERAGE MISS LATENCY: 147.139 cycles
STLB RQ	ACCESS:         36	FORWARD:          0	MERGED:          0	TO_CACHE:         36

STLB Hit, L1D data hit: 0
STLB Hit, L2C data hit: 0
STLB Hit, LLC data hit: 0
STLB Hit, LLC data miss: 0
STLB STLB hints to L2: 0
L1D TOTAL     ACCESS:   52699931  HIT:   52699812  MISS:        119  HIT %:    99.9998  MISS %: 0.000225807   MPKI: 0.000595
L1D LOAD      ACCESS:   23676464  HIT:   23676428  MISS:         36  HIT %:    99.9998  MISS %: 0.00015205   MPKI: 0.00018
L1D RFO       ACCESS:   29023467  HIT:   29023384  MISS:         83  HIT %:    99.9997  MISS %: 0.000285975   MPKI: 0.000415
L1D PREFETCH  REQUESTED:          0  ISSUED:          0  USEFUL:          0  USELESS:          0
L1D USEFUL LOAD PREFETCHES:          0 PREFETCH ISSUED TO LOWER LEVEL:          0  ACCURACY: -nan
L1D TIMELY PREFETCHES:          0 LATE PREFETCHES: 0 DROPPED PREFETCHES: 0
L1D PREFETCHES SAME FILL-ORIGIN LEVEL: 0 DIFFERENT FILL-ORIGIN LEVEL: 0
L1D AVERAGE MISS LATENCY: 170.235 cycles
L1D RQ	ACCESS:   38779723	FORWARD:          0	MERGED:   14880494	TO_CACHE:   23676482
L1D WQ	ACCESS:   32448414	FORWARD:     222747	MERGED:    3424446	TO_CACHE:   29023968

L1D UNIQUE REGIONS ACCESSED: 0
L1D REGIONS CONFLICTS: 0
L1D Cross Page Prefetch Requests: 0
L1D Same Page Prefetch Requests: 0
L1D ROI Sum of L1D PQ occupancy: 0
L1D PREFETCHES PUSHED FROM L2C: 0
L1I TOTAL     ACCESS:   36028024  HIT:   36025707  MISS:       2317  HIT %:    99.9936  MISS %:  0.0064311   MPKI: 0.011585
L1I LOAD      ACCESS:   36028024  HIT:   36025707  MISS:       2317  HIT %:    99.9936  MISS %:  0.0064311   MPKI: 0.011585
L1I PREFETCH  REQUESTED:          0  ISSUED:          0  USEFUL:          0  USELESS:          0
L1I USEFUL LOAD PREFETCHES:          0 PREFETCH ISSUED TO LOWER LEVEL:          0  ACCURACY: -nan
L1I TIMELY PREFETCHES:          0 LATE PREFETCHES: 0 DROPPED PREFETCHES: 0
L1I PREFETCHES SAME FILL-ORIGIN LEVEL: 0 DIFFERENT FILL-ORIGIN LEVEL: 0
L1I AVERAGE MISS LATENCY: 58.451 cycles
L1I RQ	ACCESS:   53243404	FORWARD:          0	MERGED:   17214316	TO_CACHE:   36029088

BTB TOTAL     ACCESS:   25219103  HIT:   25215069  MISS:       4034  HIT %:     99.984  MISS %:  0.0159958   MPKI: 0.02017
BTB BRANCH_DIRECT_JUMP	ACCESS:    2170625  HIT:    2170514  MISS:        111
BTB BRANCH_INDIRECT	ACCESS:          0  HIT:          0  MISS:          0
BTB BRANCH_CONDITIONAL	ACCESS:   22979974  HIT:   22979289  MISS:        685
BTB BRANCH_DIRECT_CALL	ACCESS:      34253  HIT:      34173  MISS:         80
BTB BRANCH_INDIRECT_CALL	ACCESS:          0  HIT:          0  MISS:          0
BTB BRANCH_RETURN	ACCESS:      34251  HIT:      31093  MISS:       3158
BTB BRANCH_OTHER ACCESS:          0  HIT:          0  MISS:          0

L2C TOTAL     ACCESS:       2472  HIT:       1430  MISS:       1042  HIT %:    57.8479  MISS %:    42.1521   MPKI: 0.00521
L2C LOAD      ACCESS:       2353  HIT:       1401  MISS:        952  HIT %:     59.541  MISS %:     40.459   MPKI: 0.00476
L2C DATA LOAD MPKI: 0.00018
L2C INSTRUCTION LOAD MPKI: 0.00458
L2C RFO       ACCESS:         83  HIT:          0  MISS:         83  HIT %:          0  MISS %:        100   MPKI: 0.000415
L2C LOAD TRANSLATION ACCESS:         36  HIT:         29  MISS:          7  HIT %:    80.5556  MISS %:    19.4444   MPKI: 3.5e-05
L2C PREFETCH  REQUESTED:          0  ISSUED:          0  USEFUL:          0  USELESS:          0
L2C USEFUL LOAD PREFETCHES:          0 PREFETCH ISSUED TO LOWER LEVEL:          0  ACCURACY: -nan
L2C TIMELY PREFETCHES:          0 LATE PREFETCHES: 0 DROPPED PREFETCHES: 0
L2C PREFETCHES SAME FILL-ORIGIN LEVEL: 0 DIFFERENT FILL-ORIGIN LEVEL: 0
L2C AVERAGE MISS LATENCY: 117.431 cycles
L2C RQ	ACCESS:       2472	FORWARD:          0	MERGED:          0	TO_CACHE:       2472

L2C Instructions Evicting Data 0
L2C Translations Evicting Data 0
L2C Data Evicting Data 0
L2C Instructions Evicting Instructions 0
L2C Translations Evicting Instructions 0
L2C Data Evicting Instructions 0
L2C Instructions Evicting Translations 0
L2C Translations Evicting Translations 0
L2C Data Evicting Translations 0
L2C Dense regions hint from L2: 0
PSCL5 TOTAL     ACCESS:         36  HIT:         36  MISS:          0  HIT %:        100  MISS %:          0   MPKI: 0
PSCL5 LOAD TRANSLATION ACCESS:         36  HIT:         36  MISS:          0  HIT %:        100  MISS %:          0   MPKI: 0
PSCL5 PREFETCH  REQUESTED:          0  ISSUED:          0  USEFUL:          0  USELESS:          0
PSCL5 USEFUL LOAD PREFETCHES:          0 PREFETCH ISSUED TO LOWER LEVEL:          0  ACCURACY: -nan
PSCL5 TIMELY PREFETCHES:          0 LATE PREFETCHES: 0 DROPPED PREFETCHES: 0
PSCL5 PREFETCHES SAME FILL-ORIGIN LEVEL: 0 DIFFERENT FILL-ORIGIN LEVEL: 0

PSCL4 TOTAL     ACCESS:         36  HIT:         36  MISS:          0  HIT %:        100  MISS %:          0   MPKI: 0
PSCL4 LOAD TRANSLATION ACCESS:         36  HIT:         36  MISS:          0  HIT %:        100  MISS %:          0   MPKI: 0
PSCL4 PREFETCH  REQUESTED:          0  ISSUED:          0  USEFUL:          0  USELESS:          0
PSCL4 USEFUL LOAD PREFETCHES:          0 PREFETCH ISSUED TO LOWER LEVEL:          0  ACCURACY: -nan
PSCL4 TIMELY PREFETCHES:          0 LATE PREFETCHES: 0 DROPPED PREFETCHES: 0
PSCL4 PREFETCHES SAME FILL-ORIGIN LEVEL: 0 DIFFERENT FILL-ORIGIN LEVEL: 0

PSCL3 TOTAL     ACCESS:         36  HIT:         36  MISS:          0  HIT %:        100  MISS %:          0   MPKI: 0
PSCL3 LOAD TRANSLATION ACCESS:         36  HIT:         36  MISS:          0  HIT %:        100  MISS %:          0   MPKI: 0
PSCL3 PREFETCH  REQUESTED:          0  ISSUED:          0  USEFUL:          0  USELESS:          0
PSCL3 USEFUL LOAD PREFETCHES:          0 PREFETCH ISSUED TO LOWER LEVEL:          0  ACCURACY: -nan
PSCL3 TIMELY PREFETCHES:          0 LATE PREFETCHES: 0 DROPPED PREFETCHES: 0
PSCL3 PREFETCHES SAME FILL-ORIGIN LEVEL: 0 DIFFERENT FILL-ORIGIN LEVEL: 0

PSCL2 TOTAL     ACCESS:         36  HIT:         35  MISS:          1  HIT %:    97.2222  MISS %:    2.77778   MPKI: 5e-06
PSCL2 LOAD TRANSLATION ACCESS:         36  HIT:         35  MISS:          1  HIT %:    97.2222  MISS %:    2.77778   MPKI: 5e-06
PSCL2 PREFETCH  REQUESTED:          0  ISSUED:          0  USEFUL:          0  USELESS:          0
PSCL2 USEFUL LOAD PREFETCHES:          0 PREFETCH ISSUED TO LOWER LEVEL:          0  ACCURACY: -nan
PSCL2 TIMELY PREFETCHES:          0 LATE PREFETCHES: 0 DROPPED PREFETCHES: 0
PSCL2 PREFETCHES SAME FILL-ORIGIN LEVEL: 0 DIFFERENT FILL-ORIGIN LEVEL: 0

LLC TOTAL     ACCESS:       1042  HIT:          0  MISS:       1042  HIT %:          0  MISS %:        100   MPKI: 0.00521
LLC LOAD      ACCESS:        952  HIT:          0  MISS:        952  HIT %:          0  MISS %:        100   MPKI: 0.00476
LLC RFO       ACCESS:         83  HIT:          0  MISS:         83  HIT %:          0  MISS %:        100   MPKI: 0.000415
LLC LOAD TRANSLATION ACCESS:          7  HIT:          0  MISS:          7  HIT %:          0  MISS %:        100   MPKI: 3.5e-05
LLC PREFETCH  REQUESTED:          0  ISSUED:          0  USEFUL:          0  USELESS:          0
LLC USEFUL LOAD PREFETCHES:          0 PREFETCH ISSUED TO LOWER LEVEL:          0  ACCURACY: -nan
LLC TIMELY PREFETCHES:          0 LATE PREFETCHES: 0 DROPPED PREFETCHES: 0
LLC PREFETCHES SAME FILL-ORIGIN LEVEL: 0 DIFFERENT FILL-ORIGIN LEVEL: 0
LLC AVERAGE MISS LATENCY: 87.3436 cycles
LLC RQ	ACCESS:       1042	FORWARD:          0	MERGED:          0	TO_CACHE:       1042

LLC Dense regions hint to LLC: 0

RAW hits: 6989988
Loads Generated: 45769711
Loads sent to L1D: 38779723
Stores Generated: 32448399
Stores sent to L1D: 32448414
Major fault: 0 Minor fault: 56
Allocated PAGES: 56

DRAM Statistics
 CHANNEL 0
 RQ ROW_BUFFER_HIT:        878  ROW_BUFFER_MISS:        164
 DBUS_CONGESTED:          0
 WQ ROW_BUFFER_HIT:          0  ROW_BUFFER_MISS:          0  FULL:          0

 AVG_CONGESTED_CYCLE: -
 All warmup complete: 2
Channel 0 Bank busy for read cycles: 0
Channel 0 Bank busy for write cycles: 0
Channel 0
Rank 0
0banks busy for read cycles: 182453968
0banks busy for write cycles: 0
1banks busy for read cycles: 38052
1banks busy for write cycles: 0
2banks busy for read cycles: 12666
2banks busy for write cycles: 0
3banks busy for read cycles: 841
3banks busy for write cycles: 0
4banks busy for read cycles: 220
4banks busy for write cycles: 0
5banks busy for read cycles: 86
5banks busy for write cycles: 0
6banks busy for read cycles: 60
6banks busy for write cycles: 0
7banks busy for read cycles: 132
7banks busy for write cycles: 0
8banks busy for read cycles: 0
8banks busy for write cycles: 0

CPU 0 Branch Prediction Accuracy: 99.6285% MPKI: 0.47829 Average ROB Occupancy at Mispredict: 28.1091
Branch types
NOT_BRANCH: 172012462 86.0062%
BRANCH_DIRECT_JUMP: 2170625 1.08531%
BRANCH_INDIRECT: 0 0%
BRANCH_CONDITIONAL: 25748078 12.874%
BRANCH_DIRECT_CALL: 34253 0.0171265%
BRANCH_INDIRECT_CALL: 0 0%
BRANCH_RETURN: 34251 0.0171255%
BRANCH_OTHER: 0 0%

DRAM PAGES: 1048576
Allocated PAGES: 56
