526208 bits of metadata so far, 405638 left out of 526336 total budget
table size is 13521 bits, 2253 entries for 5 bit, 1931 entries for 6 bit
526208 total bits (64.23KB)

*** ChampSim Multicore Out-of-Order Simulator ***

Warmup Instructions: 50000000
Simulation Instructions: 200000000
Number of CPUs: 1
LLC sets: 2048
LLC ways: 16
Off-chip DRAM Size: 4096 MB Channels: 1 Width: 64-bit Data Rate: 6400 MT/s
argv[0]: ./ChampSim/Berti/bin/multiperspective_perceptron-no-vberti-no-no-no-no-no-lru-lru-lru-srrip-drrip-lru-lru-lru-1core-no
argv[1]: -warmup_instructions
argv[2]: 50000000
argv[3]: -simulation_instructions
argv[4]: 200000000
argv[5]: -traces
argv[6]: traces/spec2k17_ten/648.exchange2_s-353B.champsimtrace.xz
CPU 0 runs traces/spec2k17_ten/648.exchange2_s-353B.champsimtrace.xz
.xz
CPU 0 Multiperspective perceptron branch predictor
BTB has LRU replacement policy
ITLB has LRU replacement policy
DTLB has LRU replacement policy
STLB has LRU replacement policy
L1I has LRU replacement policy
History Sets: 8
History Ways: 16
BERTI Size: 16
BERTI Stride Size: 16
L1D has LRU replacement policy
Initialize SRRIP state for L2C
Initialize DRRIP state for LLC
Heartbeat CPU 0 instructions: 10000000 cycles: 2668888 heartbeat IPC: 3.74688 cumulative IPC: 3.74688 (Simulation time: 0 hr 1 min 55 sec) 
Heartbeat CPU 0 instructions: 20000003 cycles: 5341002 heartbeat IPC: 3.74236 cumulative IPC: 3.74462 (Simulation time: 0 hr 3 min 21 sec) 
Heartbeat CPU 0 instructions: 30000002 cycles: 8009140 heartbeat IPC: 3.74793 cumulative IPC: 3.74572 (Simulation time: 0 hr 4 min 53 sec) 
Heartbeat CPU 0 instructions: 40000003 cycles: 10690895 heartbeat IPC: 3.7289 cumulative IPC: 3.7415 (Simulation time: 0 hr 6 min 23 sec) 
Heartbeat CPU 0 instructions: 50000001 cycles: 13362756 heartbeat IPC: 3.74271 cumulative IPC: 3.74174 (Simulation time: 0 hr 7 min 46 sec) 

Warmup complete CPU 0 instructions: 50000001 cycles: 13362756 (Simulation time: 0 hr 7 min 46 sec) 

Heartbeat CPU 0 instructions: 60000003 cycles: 22294410 heartbeat IPC: 1.11961 cumulative IPC: 1.11961 (Simulation time: 0 hr 9 min 47 sec) 
Heartbeat CPU 0 instructions: 70000000 cycles: 31327826 heartbeat IPC: 1.107 cumulative IPC: 1.11327 (Simulation time: 0 hr 11 min 48 sec) 
Heartbeat CPU 0 instructions: 80000001 cycles: 41284323 heartbeat IPC: 1.00437 cumulative IPC: 1.07444 (Simulation time: 0 hr 16 min 11 sec) 
Heartbeat CPU 0 instructions: 90000000 cycles: 50191956 heartbeat IPC: 1.12263 cumulative IPC: 1.08609 (Simulation time: 0 hr 20 min 35 sec) 
Heartbeat CPU 0 instructions: 100000003 cycles: 59137191 heartbeat IPC: 1.11791 cumulative IPC: 1.09231 (Simulation time: 0 hr 23 min 59 sec) 
Heartbeat CPU 0 instructions: 110000000 cycles: 68085728 heartbeat IPC: 1.1175 cumulative IPC: 1.09643 (Simulation time: 0 hr 27 min 24 sec) 
Heartbeat CPU 0 instructions: 120000002 cycles: 76974187 heartbeat IPC: 1.12505 cumulative IPC: 1.10043 (Simulation time: 0 hr 30 min 58 sec) 
Heartbeat CPU 0 instructions: 130000001 cycles: 85950158 heartbeat IPC: 1.11409 cumulative IPC: 1.10212 (Simulation time: 0 hr 34 min 16 sec) 
Heartbeat CPU 0 instructions: 140000001 cycles: 94872220 heartbeat IPC: 1.12082 cumulative IPC: 1.10417 (Simulation time: 0 hr 37 min 39 sec) 
Heartbeat CPU 0 instructions: 150000003 cycles: 103768382 heartbeat IPC: 1.12408 cumulative IPC: 1.10613 (Simulation time: 0 hr 41 min 20 sec) 
Heartbeat CPU 0 instructions: 160000001 cycles: 112716937 heartbeat IPC: 1.1175 cumulative IPC: 1.10715 (Simulation time: 0 hr 45 min 7 sec) 
Heartbeat CPU 0 instructions: 170000001 cycles: 121702687 heartbeat IPC: 1.11287 cumulative IPC: 1.10762 (Simulation time: 0 hr 48 min 47 sec) 
Heartbeat CPU 0 instructions: 180000000 cycles: 130622439 heartbeat IPC: 1.12111 cumulative IPC: 1.10865 (Simulation time: 0 hr 52 min 53 sec) 
Heartbeat CPU 0 instructions: 190000001 cycles: 139537269 heartbeat IPC: 1.12173 cumulative IPC: 1.10957 (Simulation time: 0 hr 56 min 38 sec) 
Heartbeat CPU 0 instructions: 200000003 cycles: 149778990 heartbeat IPC: 0.976399 cumulative IPC: 1.09958 (Simulation time: 1 hr 0 min 33 sec) 
Heartbeat CPU 0 instructions: 210000001 cycles: 163129483 heartbeat IPC: 0.749036 cumulative IPC: 1.06833 (Simulation time: 1 hr 4 min 16 sec) 
Heartbeat CPU 0 instructions: 220000000 cycles: 175575509 heartbeat IPC: 0.803469 cumulative IPC: 1.04801 (Simulation time: 1 hr 8 min 19 sec) 
Heartbeat CPU 0 instructions: 230000000 cycles: 186989493 heartbeat IPC: 0.876118 cumulative IPC: 1.03671 (Simulation time: 1 hr 12 min 7 sec) 
Heartbeat CPU 0 instructions: 240000000 cycles: 195982402 heartbeat IPC: 1.11199 cumulative IPC: 1.04041 (Simulation time: 1 hr 15 min 40 sec) 
Heartbeat CPU 0 instructions: 250000000 cycles: 205025697 heartbeat IPC: 1.10579 cumulative IPC: 1.0435 (Simulation time: 1 hr 19 min 9 sec) 
Finished CPU 0 instructions: 200000003 cycles: 191662942 cumulative IPC: 1.0435 (Simulation time: 1 hr 19 min 9 sec) 

ChampSim completed all CPUs

Region of Interest Statistics

CPU 0 cumulative IPC: 1.0435 instructions: 200000003 cycles: 191662942
ITLB TOTAL     ACCESS:   30107339  HIT:   30107315  MISS:         24  HIT %:    99.9999  MISS %: 7.97148e-05   MPKI: 0.00012
ITLB LOAD TRANSLATION ACCESS:   30107339  HIT:   30107315  MISS:         24  HIT %:    99.9999  MISS %: 7.97148e-05   MPKI: 0.00012
ITLB PREFETCH  REQUESTED:          0  ISSUED:          0  USEFUL:          0  USELESS:          0
ITLB USEFUL LOAD PREFETCHES:          0 PREFETCH ISSUED TO LOWER LEVEL:          0  ACCURACY: -nan
ITLB TIMELY PREFETCHES:          0 LATE PREFETCHES: 0 DROPPED PREFETCHES: 0
ITLB PREFETCHES SAME FILL-ORIGIN LEVEL: 0 DIFFERENT FILL-ORIGIN LEVEL: 0
ITLB AVERAGE MISS LATENCY: 153.333 cycles
ITLB RQ	ACCESS:   36552239	FORWARD:          0	MERGED:    6444893	TO_CACHE:   30107346

DTLB TOTAL     ACCESS:   34018355  HIT:   34018341  MISS:         14  HIT %:        100  MISS %: 4.11543e-05   MPKI: 7e-05
DTLB LOAD TRANSLATION ACCESS:   34018355  HIT:   34018341  MISS:         14  HIT %:        100  MISS %: 4.11543e-05   MPKI: 7e-05
DTLB PREFETCH  REQUESTED:          0  ISSUED:          0  USEFUL:          0  USELESS:          0
DTLB USEFUL LOAD PREFETCHES:          0 PREFETCH ISSUED TO LOWER LEVEL:          0  ACCURACY: -nan
DTLB TIMELY PREFETCHES:          0 LATE PREFETCHES: 0 DROPPED PREFETCHES: 0
DTLB PREFETCHES SAME FILL-ORIGIN LEVEL: 0 DIFFERENT FILL-ORIGIN LEVEL: 0
DTLB AVERAGE MISS LATENCY: 173.929 cycles
DTLB RQ	ACCESS:   53285629	FORWARD:          0	MERGED:   19267272	TO_CACHE:   34018357

STLB TOTAL     ACCESS:         38  HIT:          0  MISS:         38  HIT %:          0  MISS %:        100   MPKI: 0.00019
STLB LOAD TRANSLATION ACCESS:         38  HIT:          0  MISS:         38  HIT %:          0  MISS %:        100   MPKI: 0.00019
STLB PREFETCH  REQUESTED:          0  ISSUED:          0  USEFUL:          0  USELESS:          0
STLB USEFUL LOAD PREFETCHES:          0 PREFETCH ISSUED TO LOWER LEVEL:          0  ACCURACY: -nan
STLB TIMELY PREFETCHES:          0 LATE PREFETCHES: 0 DROPPED PREFETCHES: 0
STLB PREFETCHES SAME FILL-ORIGIN LEVEL: 0 DIFFERENT FILL-ORIGIN LEVEL: 0
STLB AVERAGE MISS LATENCY: 149.421 cycles
STLB RQ	ACCESS:         38	FORWARD:          0	MERGED:          0	TO_CACHE:         38

STLB Hit, L1D data hit: 0
STLB Hit, L2C data hit: 0
STLB Hit, LLC data hit: 0
STLB Hit, LLC data miss: 0
STLB STLB hints to L2: 0
L1D TOTAL     ACCESS:   53285047  HIT:   53284935  MISS:        112  HIT %:    99.9998  MISS %: 0.00021019   MPKI: 0.00056
L1D LOAD      ACCESS:   24502112  HIT:   24502067  MISS:         45  HIT %:    99.9998  MISS %: 0.000183658   MPKI: 0.000225
L1D RFO       ACCESS:   28782935  HIT:   28782868  MISS:         67  HIT %:    99.9998  MISS %: 0.000232777   MPKI: 0.000335
L1D PREFETCH  REQUESTED:          0  ISSUED:          0  USEFUL:          0  USELESS:          0
L1D USEFUL LOAD PREFETCHES:          0 PREFETCH ISSUED TO LOWER LEVEL:          0  ACCURACY: -nan
L1D TIMELY PREFETCHES:          0 LATE PREFETCHES: 0 DROPPED PREFETCHES: 0
L1D PREFETCHES SAME FILL-ORIGIN LEVEL: 0 DIFFERENT FILL-ORIGIN LEVEL: 0
L1D AVERAGE MISS LATENCY: 166.991 cycles
L1D RQ	ACCESS:   40387517	FORWARD:          0	MERGED:   15703097	TO_CACHE:   24502122
L1D WQ	ACCESS:   32523704	FORWARD:     182298	MERGED:    3740197	TO_CACHE:   28783507

L1D UNIQUE REGIONS ACCESSED: 0
L1D REGIONS CONFLICTS: 0
L1D Cross Page Prefetch Requests: 0
L1D Same Page Prefetch Requests: 0
L1D ROI Sum of L1D PQ occupancy: 0
L1D PREFETCHES PUSHED FROM L2C: 0
L1I TOTAL     ACCESS:   36543270  HIT:   36525406  MISS:      17864  HIT %:    99.9511  MISS %:  0.0488845   MPKI: 0.08932
L1I LOAD      ACCESS:   36543270  HIT:   36525406  MISS:      17864  HIT %:    99.9511  MISS %:  0.0488845   MPKI: 0.08932
L1I PREFETCH  REQUESTED:          0  ISSUED:          0  USEFUL:          0  USELESS:          0
L1I USEFUL LOAD PREFETCHES:          0 PREFETCH ISSUED TO LOWER LEVEL:          0  ACCURACY: -nan
L1I TIMELY PREFETCHES:          0 LATE PREFETCHES: 0 DROPPED PREFETCHES: 0
L1I PREFETCHES SAME FILL-ORIGIN LEVEL: 0 DIFFERENT FILL-ORIGIN LEVEL: 0
L1I AVERAGE MISS LATENCY: 20.7057 cycles
L1I RQ	ACCESS:   54675564	FORWARD:          0	MERGED:   18123325	TO_CACHE:   36552239

BTB TOTAL     ACCESS:   25555717  HIT:   25528957  MISS:      26760  HIT %:    99.8953  MISS %:   0.104712   MPKI: 0.1338
BTB BRANCH_DIRECT_JUMP	ACCESS:    2127770  HIT:    2127646  MISS:        124
BTB BRANCH_INDIRECT	ACCESS:          0  HIT:          0  MISS:          0
BTB BRANCH_CONDITIONAL	ACCESS:   23285244  HIT:   23284394  MISS:        850
BTB BRANCH_DIRECT_CALL	ACCESS:      71352  HIT:      71267  MISS:         85
BTB BRANCH_INDIRECT_CALL	ACCESS:          0  HIT:          0  MISS:          0
BTB BRANCH_RETURN	ACCESS:      71351  HIT:      45650  MISS:      25701
BTB BRANCH_OTHER ACCESS:          0  HIT:          0  MISS:          0

L2C TOTAL     ACCESS:      18014  HIT:      16868  MISS:       1146  HIT %:    93.6383  MISS %:    6.36172   MPKI: 0.00573
L2C LOAD      ACCESS:      17909  HIT:      16837  MISS:       1072  HIT %:    94.0142  MISS %:    5.98582   MPKI: 0.00536
L2C DATA LOAD MPKI: 0.000225
L2C INSTRUCTION LOAD MPKI: 0.005135
L2C RFO       ACCESS:         67  HIT:          0  MISS:         67  HIT %:          0  MISS %:        100   MPKI: 0.000335
L2C LOAD TRANSLATION ACCESS:         38  HIT:         31  MISS:          7  HIT %:    81.5789  MISS %:    18.4211   MPKI: 3.5e-05
L2C PREFETCH  REQUESTED:          0  ISSUED:          0  USEFUL:          0  USELESS:          0
L2C USEFUL LOAD PREFETCHES:          0 PREFETCH ISSUED TO LOWER LEVEL:          0  ACCURACY: -nan
L2C TIMELY PREFETCHES:          0 LATE PREFETCHES: 0 DROPPED PREFETCHES: 0
L2C PREFETCHES SAME FILL-ORIGIN LEVEL: 0 DIFFERENT FILL-ORIGIN LEVEL: 0
L2C AVERAGE MISS LATENCY: 120.04 cycles
L2C RQ	ACCESS:      18014	FORWARD:          0	MERGED:          0	TO_CACHE:      18014

L2C Instructions Evicting Data 0
L2C Translations Evicting Data 0
L2C Data Evicting Data 0
L2C Instructions Evicting Instructions 0
L2C Translations Evicting Instructions 0
L2C Data Evicting Instructions 0
L2C Instructions Evicting Translations 0
L2C Translations Evicting Translations 0
L2C Data Evicting Translations 0
L2C Dense regions hint from L2: 0
PSCL5 TOTAL     ACCESS:         38  HIT:         38  MISS:          0  HIT %:        100  MISS %:          0   MPKI: 0
PSCL5 LOAD TRANSLATION ACCESS:         38  HIT:         38  MISS:          0  HIT %:        100  MISS %:          0   MPKI: 0
PSCL5 PREFETCH  REQUESTED:          0  ISSUED:          0  USEFUL:          0  USELESS:          0
PSCL5 USEFUL LOAD PREFETCHES:          0 PREFETCH ISSUED TO LOWER LEVEL:          0  ACCURACY: -nan
PSCL5 TIMELY PREFETCHES:          0 LATE PREFETCHES: 0 DROPPED PREFETCHES: 0
PSCL5 PREFETCHES SAME FILL-ORIGIN LEVEL: 0 DIFFERENT FILL-ORIGIN LEVEL: 0

PSCL4 TOTAL     ACCESS:         38  HIT:         38  MISS:          0  HIT %:        100  MISS %:          0   MPKI: 0
PSCL4 LOAD TRANSLATION ACCESS:         38  HIT:         38  MISS:          0  HIT %:        100  MISS %:          0   MPKI: 0
PSCL4 PREFETCH  REQUESTED:          0  ISSUED:          0  USEFUL:          0  USELESS:          0
PSCL4 USEFUL LOAD PREFETCHES:          0 PREFETCH ISSUED TO LOWER LEVEL:          0  ACCURACY: -nan
PSCL4 TIMELY PREFETCHES:          0 LATE PREFETCHES: 0 DROPPED PREFETCHES: 0
PSCL4 PREFETCHES SAME FILL-ORIGIN LEVEL: 0 DIFFERENT FILL-ORIGIN LEVEL: 0

PSCL3 TOTAL     ACCESS:         38  HIT:         38  MISS:          0  HIT %:        100  MISS %:          0   MPKI: 0
PSCL3 LOAD TRANSLATION ACCESS:         38  HIT:         38  MISS:          0  HIT %:        100  MISS %:          0   MPKI: 0
PSCL3 PREFETCH  REQUESTED:          0  ISSUED:          0  USEFUL:          0  USELESS:          0
PSCL3 USEFUL LOAD PREFETCHES:          0 PREFETCH ISSUED TO LOWER LEVEL:          0  ACCURACY: -nan
PSCL3 TIMELY PREFETCHES:          0 LATE PREFETCHES: 0 DROPPED PREFETCHES: 0
PSCL3 PREFETCHES SAME FILL-ORIGIN LEVEL: 0 DIFFERENT FILL-ORIGIN LEVEL: 0

PSCL2 TOTAL     ACCESS:         38  HIT:         37  MISS:          1  HIT %:    97.3684  MISS %:    2.63158   MPKI: 5e-06
PSCL2 LOAD TRANSLATION ACCESS:         38  HIT:         37  MISS:          1  HIT %:    97.3684  MISS %:    2.63158   MPKI: 5e-06
PSCL2 PREFETCH  REQUESTED:          0  ISSUED:          0  USEFUL:          0  USELESS:          0
PSCL2 USEFUL LOAD PREFETCHES:          0 PREFETCH ISSUED TO LOWER LEVEL:          0  ACCURACY: -nan
PSCL2 TIMELY PREFETCHES:          0 LATE PREFETCHES: 0 DROPPED PREFETCHES: 0
PSCL2 PREFETCHES SAME FILL-ORIGIN LEVEL: 0 DIFFERENT FILL-ORIGIN LEVEL: 0

LLC TOTAL     ACCESS:       1146  HIT:          0  MISS:       1146  HIT %:          0  MISS %:        100   MPKI: 0.00573
LLC LOAD      ACCESS:       1072  HIT:          0  MISS:       1072  HIT %:          0  MISS %:        100   MPKI: 0.00536
LLC RFO       ACCESS:         67  HIT:          0  MISS:         67  HIT %:          0  MISS %:        100   MPKI: 0.000335
LLC LOAD TRANSLATION ACCESS:          7  HIT:          0  MISS:          7  HIT %:          0  MISS %:        100   MPKI: 3.5e-05
LLC PREFETCH  REQUESTED:          0  ISSUED:          0  USEFUL:          0  USELESS:          0
LLC USEFUL LOAD PREFETCHES:          0 PREFETCH ISSUED TO LOWER LEVEL:          0  ACCURACY: -nan
LLC TIMELY PREFETCHES:          0 LATE PREFETCHES: 0 DROPPED PREFETCHES: 0
LLC PREFETCHES SAME FILL-ORIGIN LEVEL: 0 DIFFERENT FILL-ORIGIN LEVEL: 0
LLC AVERAGE MISS LATENCY: 89.8255 cycles
LLC RQ	ACCESS:       1146	FORWARD:          0	MERGED:          0	TO_CACHE:       1146

LLC Dense regions hint to LLC: 0

RAW hits: 6953769
Loads Generated: 47341287
Loads sent to L1D: 40387517
Stores Generated: 32523682
Stores sent to L1D: 32523704
Major fault: 0 Minor fault: 59
Allocated PAGES: 59

DRAM Statistics
 CHANNEL 0
 RQ ROW_BUFFER_HIT:        931  ROW_BUFFER_MISS:        215
 DBUS_CONGESTED:          0
 WQ ROW_BUFFER_HIT:          0  ROW_BUFFER_MISS:          0  FULL:          0

 AVG_CONGESTED_CYCLE: -
 All warmup complete: 2
Channel 0 Bank busy for read cycles: 0
Channel 0 Bank busy for write cycles: 0
Channel 0
Rank 0
0banks busy for read cycles: 191600493
0banks busy for write cycles: 0
1banks busy for read cycles: 47244
1banks busy for write cycles: 0
2banks busy for read cycles: 14212
2banks busy for write cycles: 0
3banks busy for read cycles: 881
3banks busy for write cycles: 0
4banks busy for read cycles: 76
4banks busy for write cycles: 0
5banks busy for read cycles: 37
5banks busy for write cycles: 0
6banks busy for read cycles: 0
6banks busy for write cycles: 0
7banks busy for read cycles: 0
7banks busy for write cycles: 0
8banks busy for read cycles: 0
8banks busy for write cycles: 0

CPU 0 Branch Prediction Accuracy: 99.3749% MPKI: 0.815505 Average ROB Occupancy at Mispredict: 28.8202
Branch types
NOT_BRANCH: 171636800 85.8184%
BRANCH_DIRECT_JUMP: 2127770 1.06388%
BRANCH_INDIRECT: 0 0%
BRANCH_CONDITIONAL: 26092411 13.0462%
BRANCH_DIRECT_CALL: 71352 0.035676%
BRANCH_INDIRECT_CALL: 0 0%
BRANCH_RETURN: 71351 0.0356755%
BRANCH_OTHER: 0 0%

DRAM PAGES: 1048576
Allocated PAGES: 59
