526208 bits of metadata so far, 405638 left out of 526336 total budget
table size is 13521 bits, 2253 entries for 5 bit, 1931 entries for 6 bit
526208 total bits (64.23KB)

*** ChampSim Multicore Out-of-Order Simulator ***

Warmup Instructions: 50000000
Simulation Instructions: 200000000
Number of CPUs: 1
LLC sets: 2048
LLC ways: 16
Off-chip DRAM Size: 4096 MB Channels: 1 Width: 64-bit Data Rate: 6400 MT/s
argv[0]: ./ChampSim/Berti/bin/multiperspective_perceptron-no-vberti-no-no-no-no-no-lru-lru-lru-srrip-drrip-lru-lru-lru-1core-no
argv[1]: -warmup_instructions
argv[2]: 50000000
argv[3]: -simulation_instructions
argv[4]: 200000000
argv[5]: -traces
argv[6]: traces/spec2k17_ten/648.exchange2_s-387B.champsimtrace.xz
CPU 0 runs traces/spec2k17_ten/648.exchange2_s-387B.champsimtrace.xz
.xz
CPU 0 Multiperspective perceptron branch predictor
BTB has LRU replacement policy
ITLB has LRU replacement policy
DTLB has LRU replacement policy
STLB has LRU replacement policy
L1I has LRU replacement policy
History Sets: 8
History Ways: 16
BERTI Size: 16
BERTI Stride Size: 16
L1D has LRU replacement policy
Initialize SRRIP state for L2C
Initialize DRRIP state for LLC
Heartbeat CPU 0 instructions: 10000003 cycles: 2680338 heartbeat IPC: 3.73087 cumulative IPC: 3.73087 (Simulation time: 0 hr 7 min 13 sec) 
Heartbeat CPU 0 instructions: 20000001 cycles: 5415337 heartbeat IPC: 3.65631 cumulative IPC: 3.69321 (Simulation time: 0 hr 12 min 52 sec) 
Heartbeat CPU 0 instructions: 30000001 cycles: 8151587 heartbeat IPC: 3.65464 cumulative IPC: 3.68027 (Simulation time: 0 hr 14 min 16 sec) 
Heartbeat CPU 0 instructions: 40000001 cycles: 10880926 heartbeat IPC: 3.66389 cumulative IPC: 3.67616 (Simulation time: 0 hr 15 min 58 sec) 
Heartbeat CPU 0 instructions: 50000000 cycles: 13617100 heartbeat IPC: 3.65474 cumulative IPC: 3.67185 (Simulation time: 0 hr 19 min 47 sec) 

Warmup complete CPU 0 instructions: 50000004 cycles: 13617101 (Simulation time: 0 hr 19 min 47 sec) 

Heartbeat CPU 0 instructions: 60000000 cycles: 26422210 heartbeat IPC: 0.780938 cumulative IPC: 0.780938 (Simulation time: 0 hr 23 min 45 sec) 
Heartbeat CPU 0 instructions: 70000000 cycles: 39294217 heartbeat IPC: 0.77688 cumulative IPC: 0.778904 (Simulation time: 0 hr 29 min 10 sec) 
Heartbeat CPU 0 instructions: 80000001 cycles: 52123448 heartbeat IPC: 0.77947 cumulative IPC: 0.779092 (Simulation time: 0 hr 33 min 22 sec) 
Heartbeat CPU 0 instructions: 90000000 cycles: 64943775 heartbeat IPC: 0.780011 cumulative IPC: 0.779322 (Simulation time: 0 hr 38 min 37 sec) 
Heartbeat CPU 0 instructions: 100000001 cycles: 77675881 heartbeat IPC: 0.785416 cumulative IPC: 0.780533 (Simulation time: 0 hr 43 min 26 sec) 
Heartbeat CPU 0 instructions: 110000000 cycles: 89972321 heartbeat IPC: 0.813243 cumulative IPC: 0.785801 (Simulation time: 0 hr 47 min 52 sec) 
Heartbeat CPU 0 instructions: 120000001 cycles: 102788548 heartbeat IPC: 0.780261 cumulative IPC: 0.785005 (Simulation time: 0 hr 52 min 19 sec) 
Heartbeat CPU 0 instructions: 130000003 cycles: 115517068 heartbeat IPC: 0.785637 cumulative IPC: 0.785084 (Simulation time: 0 hr 57 min 13 sec) 
Heartbeat CPU 0 instructions: 140000003 cycles: 128333980 heartbeat IPC: 0.780219 cumulative IPC: 0.78454 (Simulation time: 1 hr 1 min 44 sec) 
Heartbeat CPU 0 instructions: 150000002 cycles: 140663089 heartbeat IPC: 0.811089 cumulative IPC: 0.787117 (Simulation time: 1 hr 5 min 29 sec) 
Heartbeat CPU 0 instructions: 160000003 cycles: 150956238 heartbeat IPC: 0.97152 cumulative IPC: 0.800937 (Simulation time: 1 hr 9 min 35 sec) 
Heartbeat CPU 0 instructions: 170000001 cycles: 163636123 heartbeat IPC: 0.788651 cumulative IPC: 0.799899 (Simulation time: 1 hr 12 min 53 sec) 
Heartbeat CPU 0 instructions: 180000000 cycles: 175914887 heartbeat IPC: 0.814414 cumulative IPC: 0.800997 (Simulation time: 1 hr 16 min 52 sec) 
Heartbeat CPU 0 instructions: 190000003 cycles: 188515425 heartbeat IPC: 0.793617 cumulative IPC: 0.800465 (Simulation time: 1 hr 20 min 39 sec) 
Heartbeat CPU 0 instructions: 200000000 cycles: 200521786 heartbeat IPC: 0.832892 cumulative IPC: 0.802548 (Simulation time: 1 hr 24 min 40 sec) 
Heartbeat CPU 0 instructions: 210000003 cycles: 210931798 heartbeat IPC: 0.960614 cumulative IPC: 0.810887 (Simulation time: 1 hr 28 min 3 sec) 
Heartbeat CPU 0 instructions: 220000000 cycles: 221448080 heartbeat IPC: 0.950906 cumulative IPC: 0.817972 (Simulation time: 1 hr 31 min 25 sec) 
Heartbeat CPU 0 instructions: 230000001 cycles: 231373261 heartbeat IPC: 1.00754 cumulative IPC: 0.826613 (Simulation time: 1 hr 34 min 25 sec) 
Heartbeat CPU 0 instructions: 240000002 cycles: 240233886 heartbeat IPC: 1.12859 cumulative IPC: 0.83842 (Simulation time: 1 hr 37 min 12 sec) 
Heartbeat CPU 0 instructions: 250000000 cycles: 252032461 heartbeat IPC: 0.84756 cumulative IPC: 0.838872 (Simulation time: 1 hr 39 min 30 sec) 
Finished CPU 0 instructions: 200000000 cycles: 238415361 cumulative IPC: 0.838872 (Simulation time: 1 hr 39 min 30 sec) 

ChampSim completed all CPUs

Region of Interest Statistics

CPU 0 cumulative IPC: 0.838872 instructions: 200000000 cycles: 238415361
ITLB TOTAL     ACCESS:   32246675  HIT:   32246675  MISS:          0  HIT %:        100  MISS %:          0   MPKI: 0
ITLB LOAD TRANSLATION ACCESS:   32246675  HIT:   32246675  MISS:          0  HIT %:        100  MISS %:          0   MPKI: 0
ITLB PREFETCH  REQUESTED:          0  ISSUED:          0  USEFUL:          0  USELESS:          0
ITLB USEFUL LOAD PREFETCHES:          0 PREFETCH ISSUED TO LOWER LEVEL:          0  ACCURACY: -nan
ITLB TIMELY PREFETCHES:          0 LATE PREFETCHES: 0 DROPPED PREFETCHES: 0
ITLB PREFETCHES SAME FILL-ORIGIN LEVEL: 0 DIFFERENT FILL-ORIGIN LEVEL: 0
ITLB AVERAGE MISS LATENCY: -nan cycles
ITLB RQ	ACCESS:   37855052	FORWARD:          0	MERGED:    5608378	TO_CACHE:   32246674

DTLB TOTAL     ACCESS:   33903712  HIT:   33903712  MISS:          0  HIT %:        100  MISS %:          0   MPKI: 0
DTLB LOAD TRANSLATION ACCESS:   33903712  HIT:   33903712  MISS:          0  HIT %:        100  MISS %:          0   MPKI: 0
DTLB PREFETCH  REQUESTED:          0  ISSUED:          0  USEFUL:          0  USELESS:          0
DTLB USEFUL LOAD PREFETCHES:          0 PREFETCH ISSUED TO LOWER LEVEL:          0  ACCURACY: -nan
DTLB TIMELY PREFETCHES:          0 LATE PREFETCHES: 0 DROPPED PREFETCHES: 0
DTLB PREFETCHES SAME FILL-ORIGIN LEVEL: 0 DIFFERENT FILL-ORIGIN LEVEL: 0
DTLB AVERAGE MISS LATENCY: -nan cycles
DTLB RQ	ACCESS:   48453660	FORWARD:          0	MERGED:   14549948	TO_CACHE:   33903712

STLB PREFETCH  REQUESTED:          0  ISSUED:          0  USEFUL:          0  USELESS:          0
STLB USEFUL LOAD PREFETCHES:          0 PREFETCH ISSUED TO LOWER LEVEL:          0  ACCURACY: -nan
STLB TIMELY PREFETCHES:          0 LATE PREFETCHES: 0 DROPPED PREFETCHES: 0
STLB PREFETCHES SAME FILL-ORIGIN LEVEL: 0 DIFFERENT FILL-ORIGIN LEVEL: 0
STLB AVERAGE MISS LATENCY: -nan cycles

STLB Hit, L1D data hit: 0
STLB Hit, L2C data hit: 0
STLB Hit, LLC data hit: 0
STLB Hit, LLC data miss: 0
STLB STLB hints to L2: 0
L1D TOTAL     ACCESS:   48453685  HIT:   48453662  MISS:         23  HIT %:        100  MISS %: 4.7468e-05   MPKI: 0.000115
L1D LOAD      ACCESS:   25902890  HIT:   25902867  MISS:         23  HIT %:    99.9999  MISS %: 8.87932e-05   MPKI: 0.000115
L1D RFO       ACCESS:   22550795  HIT:   22550795  MISS:          0  HIT %:        100  MISS %:          0   MPKI: 0
L1D PREFETCH  REQUESTED:          0  ISSUED:          0  USEFUL:          0  USELESS:          0
L1D USEFUL LOAD PREFETCHES:          0 PREFETCH ISSUED TO LOWER LEVEL:          0  ACCURACY: -nan
L1D TIMELY PREFETCHES:          0 LATE PREFETCHES: 0 DROPPED PREFETCHES: 0
L1D PREFETCHES SAME FILL-ORIGIN LEVEL: 0 DIFFERENT FILL-ORIGIN LEVEL: 0
L1D AVERAGE MISS LATENCY: 188.913 cycles
L1D RQ	ACCESS:   38332598	FORWARD:          0	MERGED:   12175523	TO_CACHE:   25902882
L1D WQ	ACCESS:   25096825	FORWARD:     254193	MERGED:    2546047	TO_CACHE:   22550778

L1D UNIQUE REGIONS ACCESSED: 0
L1D REGIONS CONFLICTS: 0
L1D Cross Page Prefetch Requests: 0
L1D Same Page Prefetch Requests: 0
L1D ROI Sum of L1D PQ occupancy: 0
L1D PREFETCHES PUSHED FROM L2C: 0
L1I TOTAL     ACCESS:   37811032  HIT:   37726291  MISS:      84741  HIT %:    99.7759  MISS %:   0.224117   MPKI: 0.423705
L1I LOAD      ACCESS:   37811032  HIT:   37726291  MISS:      84741  HIT %:    99.7759  MISS %:   0.224117   MPKI: 0.423705
L1I PREFETCH  REQUESTED:          0  ISSUED:          0  USEFUL:          0  USELESS:          0
L1I USEFUL LOAD PREFETCHES:          0 PREFETCH ISSUED TO LOWER LEVEL:          0  ACCURACY: -nan
L1I TIMELY PREFETCHES:          0 LATE PREFETCHES: 0 DROPPED PREFETCHES: 0
L1I PREFETCHES SAME FILL-ORIGIN LEVEL: 0 DIFFERENT FILL-ORIGIN LEVEL: 0
L1I AVERAGE MISS LATENCY: 14.1124 cycles
L1I RQ	ACCESS:   57396029	FORWARD:          0	MERGED:   19540977	TO_CACHE:   37855052

BTB TOTAL     ACCESS:   28140251  HIT:   27991234  MISS:     149017  HIT %:    99.4704  MISS %:   0.529551   MPKI: 0.745085
BTB BRANCH_DIRECT_JUMP	ACCESS:    2565314  HIT:    2565183  MISS:        131
BTB BRANCH_INDIRECT	ACCESS:          0  HIT:          0  MISS:          0
BTB BRANCH_CONDITIONAL	ACCESS:   24907077  HIT:   24906205  MISS:        872
BTB BRANCH_DIRECT_CALL	ACCESS:     333930  HIT:     333846  MISS:         84
BTB BRANCH_INDIRECT_CALL	ACCESS:          0  HIT:          0  MISS:          0
BTB BRANCH_RETURN	ACCESS:     333930  HIT:     186000  MISS:     147930
BTB BRANCH_OTHER ACCESS:          0  HIT:          0  MISS:          0

L2C TOTAL     ACCESS:      84764  HIT:      84671  MISS:         93  HIT %:    99.8903  MISS %:   0.109716   MPKI: 0.000465
L2C LOAD      ACCESS:      84764  HIT:      84671  MISS:         93  HIT %:    99.8903  MISS %:   0.109716   MPKI: 0.000465
L2C DATA LOAD MPKI: 0.000115
L2C INSTRUCTION LOAD MPKI: 0.00035
L2C PREFETCH  REQUESTED:          0  ISSUED:          0  USEFUL:          0  USELESS:          0
L2C USEFUL LOAD PREFETCHES:          0 PREFETCH ISSUED TO LOWER LEVEL:          0  ACCURACY: -nan
L2C TIMELY PREFETCHES:          0 LATE PREFETCHES: 0 DROPPED PREFETCHES: 0
L2C PREFETCHES SAME FILL-ORIGIN LEVEL: 0 DIFFERENT FILL-ORIGIN LEVEL: 0
L2C AVERAGE MISS LATENCY: 139.785 cycles
L2C RQ	ACCESS:      84764	FORWARD:          0	MERGED:          0	TO_CACHE:      84764

L2C Instructions Evicting Data 0
L2C Translations Evicting Data 0
L2C Data Evicting Data 0
L2C Instructions Evicting Instructions 0
L2C Translations Evicting Instructions 0
L2C Data Evicting Instructions 0
L2C Instructions Evicting Translations 0
L2C Translations Evicting Translations 0
L2C Data Evicting Translations 0
L2C Dense regions hint from L2: 0
PSCL5 PREFETCH  REQUESTED:          0  ISSUED:          0  USEFUL:          0  USELESS:          0
PSCL5 USEFUL LOAD PREFETCHES:          0 PREFETCH ISSUED TO LOWER LEVEL:          0  ACCURACY: -nan
PSCL5 TIMELY PREFETCHES:          0 LATE PREFETCHES: 0 DROPPED PREFETCHES: 0
PSCL5 PREFETCHES SAME FILL-ORIGIN LEVEL: 0 DIFFERENT FILL-ORIGIN LEVEL: 0

PSCL4 PREFETCH  REQUESTED:          0  ISSUED:          0  USEFUL:          0  USELESS:          0
PSCL4 USEFUL LOAD PREFETCHES:          0 PREFETCH ISSUED TO LOWER LEVEL:          0  ACCURACY: -nan
PSCL4 TIMELY PREFETCHES:          0 LATE PREFETCHES: 0 DROPPED PREFETCHES: 0
PSCL4 PREFETCHES SAME FILL-ORIGIN LEVEL: 0 DIFFERENT FILL-ORIGIN LEVEL: 0

PSCL3 PREFETCH  REQUESTED:          0  ISSUED:          0  USEFUL:          0  USELESS:          0
PSCL3 USEFUL LOAD PREFETCHES:          0 PREFETCH ISSUED TO LOWER LEVEL:          0  ACCURACY: -nan
PSCL3 TIMELY PREFETCHES:          0 LATE PREFETCHES: 0 DROPPED PREFETCHES: 0
PSCL3 PREFETCHES SAME FILL-ORIGIN LEVEL: 0 DIFFERENT FILL-ORIGIN LEVEL: 0

PSCL2 PREFETCH  REQUESTED:          0  ISSUED:          0  USEFUL:          0  USELESS:          0
PSCL2 USEFUL LOAD PREFETCHES:          0 PREFETCH ISSUED TO LOWER LEVEL:          0  ACCURACY: -nan
PSCL2 TIMELY PREFETCHES:          0 LATE PREFETCHES: 0 DROPPED PREFETCHES: 0
PSCL2 PREFETCHES SAME FILL-ORIGIN LEVEL: 0 DIFFERENT FILL-ORIGIN LEVEL: 0

LLC TOTAL     ACCESS:         93  HIT:          0  MISS:         93  HIT %:          0  MISS %:        100   MPKI: 0.000465
LLC LOAD      ACCESS:         93  HIT:          0  MISS:         93  HIT %:          0  MISS %:        100   MPKI: 0.000465
LLC PREFETCH  REQUESTED:          0  ISSUED:          0  USEFUL:          0  USELESS:          0
LLC USEFUL LOAD PREFETCHES:          0 PREFETCH ISSUED TO LOWER LEVEL:          0  ACCURACY: -nan
LLC TIMELY PREFETCHES:          0 LATE PREFETCHES: 0 DROPPED PREFETCHES: 0
LLC PREFETCHES SAME FILL-ORIGIN LEVEL: 0 DIFFERENT FILL-ORIGIN LEVEL: 0
LLC AVERAGE MISS LATENCY: 109.785 cycles
LLC RQ	ACCESS:         93	FORWARD:          0	MERGED:          0	TO_CACHE:         93

LLC Dense regions hint to LLC: 0

RAW hits: 3606385
Loads Generated: 41938984
Loads sent to L1D: 38332598
Stores Generated: 25096806
Stores sent to L1D: 25096825
Major fault: 0 Minor fault: 58
Allocated PAGES: 58

DRAM Statistics
 CHANNEL 0
 RQ ROW_BUFFER_HIT:         56  ROW_BUFFER_MISS:         37
 DBUS_CONGESTED:          0
 WQ ROW_BUFFER_HIT:          0  ROW_BUFFER_MISS:          0  FULL:          0

 AVG_CONGESTED_CYCLE: -
 All warmup complete: 2
Channel 0 Bank busy for read cycles: 0
Channel 0 Bank busy for write cycles: 0
Channel 0
Rank 0
0banks busy for read cycles: 238407892
0banks busy for write cycles: 0
1banks busy for read cycles: 6590
1banks busy for write cycles: 0
2banks busy for read cycles: 880
2banks busy for write cycles: 0
3banks busy for read cycles: 0
3banks busy for write cycles: 0
4banks busy for read cycles: 0
4banks busy for write cycles: 0
5banks busy for read cycles: 0
5banks busy for write cycles: 0
6banks busy for read cycles: 0
6banks busy for write cycles: 0
7banks busy for read cycles: 0
7banks busy for write cycles: 0
8banks busy for read cycles: 0
8banks busy for write cycles: 0

CPU 0 Branch Prediction Accuracy: 99.326% MPKI: 0.978375 Average ROB Occupancy at Mispredict: 31.6335
Branch types
NOT_BRANCH: 167734696 83.8673%
BRANCH_DIRECT_JUMP: 2565314 1.28266%
BRANCH_INDIRECT: 0 0%
BRANCH_CONDITIONAL: 29031976 14.516%
BRANCH_DIRECT_CALL: 333930 0.166965%
BRANCH_INDIRECT_CALL: 0 0%
BRANCH_RETURN: 333930 0.166965%
BRANCH_OTHER: 0 0%

DRAM PAGES: 1048576
Allocated PAGES: 58
