526208 bits of metadata so far, 405638 left out of 526336 total budget
table size is 13521 bits, 2253 entries for 5 bit, 1931 entries for 6 bit
526208 total bits (64.23KB)

*** ChampSim Multicore Out-of-Order Simulator ***

Warmup Instructions: 50000000
Simulation Instructions: 200000000
Number of CPUs: 1
LLC sets: 2048
LLC ways: 16
Off-chip DRAM Size: 4096 MB Channels: 1 Width: 64-bit Data Rate: 6400 MT/s
argv[0]: ./ChampSim/Berti/bin/multiperspective_perceptron-no-vberti-no-no-no-no-no-lru-lru-lru-srrip-drrip-lru-lru-lru-1core-no
argv[1]: -warmup_instructions
argv[2]: 50000000
argv[3]: -simulation_instructions
argv[4]: 200000000
argv[5]: -traces
argv[6]: traces/spec2k17_ten/648.exchange2_s-72B.champsimtrace.xz
CPU 0 runs traces/spec2k17_ten/648.exchange2_s-72B.champsimtrace.xz
.xz
CPU 0 Multiperspective perceptron branch predictor
BTB has LRU replacement policy
ITLB has LRU replacement policy
DTLB has LRU replacement policy
STLB has LRU replacement policy
L1I has LRU replacement policy
History Sets: 8
History Ways: 16
BERTI Size: 16
BERTI Stride Size: 16
L1D has LRU replacement policy
Initialize SRRIP state for L2C
Initialize DRRIP state for LLC
Heartbeat CPU 0 instructions: 10000001 cycles: 2671439 heartbeat IPC: 3.7433 cumulative IPC: 3.7433 (Simulation time: 0 hr 1 min 55 sec) 
Heartbeat CPU 0 instructions: 20000002 cycles: 5346167 heartbeat IPC: 3.7387 cumulative IPC: 3.741 (Simulation time: 0 hr 3 min 44 sec) 
Heartbeat CPU 0 instructions: 30000001 cycles: 8021587 heartbeat IPC: 3.73773 cumulative IPC: 3.73991 (Simulation time: 0 hr 5 min 20 sec) 
Heartbeat CPU 0 instructions: 40000000 cycles: 10694053 heartbeat IPC: 3.74186 cumulative IPC: 3.7404 (Simulation time: 0 hr 6 min 57 sec) 
Heartbeat CPU 0 instructions: 50000000 cycles: 13382459 heartbeat IPC: 3.71968 cumulative IPC: 3.73623 (Simulation time: 0 hr 8 min 36 sec) 

Warmup complete CPU 0 instructions: 50000004 cycles: 13382460 (Simulation time: 0 hr 8 min 36 sec) 

Heartbeat CPU 0 instructions: 60000000 cycles: 22509485 heartbeat IPC: 1.09565 cumulative IPC: 1.09565 (Simulation time: 0 hr 10 min 37 sec) 
Heartbeat CPU 0 instructions: 70000003 cycles: 31505826 heartbeat IPC: 1.11156 cumulative IPC: 1.10355 (Simulation time: 0 hr 12 min 36 sec) 
Heartbeat CPU 0 instructions: 80000003 cycles: 40490641 heartbeat IPC: 1.11299 cumulative IPC: 1.10668 (Simulation time: 0 hr 14 min 44 sec) 
Heartbeat CPU 0 instructions: 90000000 cycles: 49376658 heartbeat IPC: 1.12536 cumulative IPC: 1.11129 (Simulation time: 0 hr 17 min 2 sec) 
Heartbeat CPU 0 instructions: 100000003 cycles: 58271480 heartbeat IPC: 1.12425 cumulative IPC: 1.11386 (Simulation time: 0 hr 21 min 40 sec) 
Heartbeat CPU 0 instructions: 110000000 cycles: 68054528 heartbeat IPC: 1.02218 cumulative IPC: 1.09745 (Simulation time: 0 hr 25 min 42 sec) 
Heartbeat CPU 0 instructions: 120000000 cycles: 76996755 heartbeat IPC: 1.11829 cumulative IPC: 1.10038 (Simulation time: 0 hr 29 min 5 sec) 
Heartbeat CPU 0 instructions: 130000000 cycles: 85928937 heartbeat IPC: 1.11955 cumulative IPC: 1.10274 (Simulation time: 0 hr 32 min 29 sec) 
Heartbeat CPU 0 instructions: 140000001 cycles: 94868159 heartbeat IPC: 1.11867 cumulative IPC: 1.10449 (Simulation time: 0 hr 36 min 5 sec) 
Heartbeat CPU 0 instructions: 150000001 cycles: 103823581 heartbeat IPC: 1.11664 cumulative IPC: 1.10569 (Simulation time: 0 hr 39 min 41 sec) 
Heartbeat CPU 0 instructions: 160000003 cycles: 112670922 heartbeat IPC: 1.13028 cumulative IPC: 1.10788 (Simulation time: 0 hr 43 min 37 sec) 
Heartbeat CPU 0 instructions: 170000003 cycles: 121611661 heartbeat IPC: 1.11848 cumulative IPC: 1.10876 (Simulation time: 0 hr 47 min 16 sec) 
Heartbeat CPU 0 instructions: 180000000 cycles: 130543039 heartbeat IPC: 1.11965 cumulative IPC: 1.10959 (Simulation time: 0 hr 51 min 13 sec) 
Heartbeat CPU 0 instructions: 190000000 cycles: 139425362 heartbeat IPC: 1.12583 cumulative IPC: 1.11073 (Simulation time: 0 hr 54 min 35 sec) 
Heartbeat CPU 0 instructions: 200000000 cycles: 148337922 heartbeat IPC: 1.12201 cumulative IPC: 1.11148 (Simulation time: 0 hr 58 min 36 sec) 
Heartbeat CPU 0 instructions: 210000001 cycles: 157212332 heartbeat IPC: 1.12684 cumulative IPC: 1.11243 (Simulation time: 1 hr 2 min 21 sec) 
Heartbeat CPU 0 instructions: 220000000 cycles: 166092993 heartbeat IPC: 1.12604 cumulative IPC: 1.11322 (Simulation time: 1 hr 6 min 1 sec) 
Heartbeat CPU 0 instructions: 230000003 cycles: 174971077 heartbeat IPC: 1.12637 cumulative IPC: 1.11394 (Simulation time: 1 hr 9 min 37 sec) 
Heartbeat CPU 0 instructions: 240000000 cycles: 183766735 heartbeat IPC: 1.13692 cumulative IPC: 1.11513 (Simulation time: 1 hr 13 min 9 sec) 
Heartbeat CPU 0 instructions: 250000001 cycles: 192562393 heartbeat IPC: 1.13692 cumulative IPC: 1.1162 (Simulation time: 1 hr 16 min 43 sec) 
Finished CPU 0 instructions: 200000000 cycles: 179179958 cumulative IPC: 1.1162 (Simulation time: 1 hr 16 min 43 sec) 

ChampSim completed all CPUs

Region of Interest Statistics

CPU 0 cumulative IPC: 1.1162 instructions: 200000000 cycles: 179179958
ITLB TOTAL     ACCESS:   29939275  HIT:   29939275  MISS:          0  HIT %:        100  MISS %:          0   MPKI: 0
ITLB LOAD TRANSLATION ACCESS:   29939275  HIT:   29939275  MISS:          0  HIT %:        100  MISS %:          0   MPKI: 0
ITLB PREFETCH  REQUESTED:          0  ISSUED:          0  USEFUL:          0  USELESS:          0
ITLB USEFUL LOAD PREFETCHES:          0 PREFETCH ISSUED TO LOWER LEVEL:          0  ACCURACY: -nan
ITLB TIMELY PREFETCHES:          0 LATE PREFETCHES: 0 DROPPED PREFETCHES: 0
ITLB PREFETCHES SAME FILL-ORIGIN LEVEL: 0 DIFFERENT FILL-ORIGIN LEVEL: 0
ITLB AVERAGE MISS LATENCY: -nan cycles
ITLB RQ	ACCESS:   36535060	FORWARD:          0	MERGED:    6595784	TO_CACHE:   29939276

DTLB TOTAL     ACCESS:   33594764  HIT:   33594764  MISS:          0  HIT %:        100  MISS %:          0   MPKI: 0
DTLB LOAD TRANSLATION ACCESS:   33594764  HIT:   33594764  MISS:          0  HIT %:        100  MISS %:          0   MPKI: 0
DTLB PREFETCH  REQUESTED:          0  ISSUED:          0  USEFUL:          0  USELESS:          0
DTLB USEFUL LOAD PREFETCHES:          0 PREFETCH ISSUED TO LOWER LEVEL:          0  ACCURACY: -nan
DTLB TIMELY PREFETCHES:          0 LATE PREFETCHES: 0 DROPPED PREFETCHES: 0
DTLB PREFETCHES SAME FILL-ORIGIN LEVEL: 0 DIFFERENT FILL-ORIGIN LEVEL: 0
DTLB AVERAGE MISS LATENCY: -nan cycles
DTLB RQ	ACCESS:   53725077	FORWARD:          0	MERGED:   20130313	TO_CACHE:   33594764

STLB PREFETCH  REQUESTED:          0  ISSUED:          0  USEFUL:          0  USELESS:          0
STLB USEFUL LOAD PREFETCHES:          0 PREFETCH ISSUED TO LOWER LEVEL:          0  ACCURACY: -nan
STLB TIMELY PREFETCHES:          0 LATE PREFETCHES: 0 DROPPED PREFETCHES: 0
STLB PREFETCHES SAME FILL-ORIGIN LEVEL: 0 DIFFERENT FILL-ORIGIN LEVEL: 0
STLB AVERAGE MISS LATENCY: -nan cycles

STLB Hit, L1D data hit: 0
STLB Hit, L2C data hit: 0
STLB Hit, LLC data hit: 0
STLB Hit, LLC data miss: 0
STLB STLB hints to L2: 0
L1D TOTAL     ACCESS:   53725077  HIT:   53725077  MISS:          0  HIT %:        100  MISS %:          0   MPKI: 0
L1D LOAD      ACCESS:   23735281  HIT:   23735281  MISS:          0  HIT %:        100  MISS %:          0   MPKI: 0
L1D RFO       ACCESS:   29989796  HIT:   29989796  MISS:          0  HIT %:        100  MISS %:          0   MPKI: 0
L1D PREFETCH  REQUESTED:          0  ISSUED:          0  USEFUL:          0  USELESS:          0
L1D USEFUL LOAD PREFETCHES:          0 PREFETCH ISSUED TO LOWER LEVEL:          0  ACCURACY: -nan
L1D TIMELY PREFETCHES:          0 LATE PREFETCHES: 0 DROPPED PREFETCHES: 0
L1D PREFETCHES SAME FILL-ORIGIN LEVEL: 0 DIFFERENT FILL-ORIGIN LEVEL: 0
L1D AVERAGE MISS LATENCY: -nan cycles
L1D RQ	ACCESS:   39961798	FORWARD:          0	MERGED:   16022093	TO_CACHE:   23735281
L1D WQ	ACCESS:   33779517	FORWARD:     204424	MERGED:    3789721	TO_CACHE:   29989796

L1D UNIQUE REGIONS ACCESSED: 0
L1D REGIONS CONFLICTS: 0
L1D Cross Page Prefetch Requests: 0
L1D Same Page Prefetch Requests: 0
L1D ROI Sum of L1D PQ occupancy: 0
L1D PREFETCHES PUSHED FROM L2C: 0
L1I TOTAL     ACCESS:   36534562  HIT:   36533386  MISS:       1176  HIT %:    99.9968  MISS %: 0.00321887   MPKI: 0.00588
L1I LOAD      ACCESS:   36534562  HIT:   36533386  MISS:       1176  HIT %:    99.9968  MISS %: 0.00321887   MPKI: 0.00588
L1I PREFETCH  REQUESTED:          0  ISSUED:          0  USEFUL:          0  USELESS:          0
L1I USEFUL LOAD PREFETCHES:          0 PREFETCH ISSUED TO LOWER LEVEL:          0  ACCURACY: -nan
L1I TIMELY PREFETCHES:          0 LATE PREFETCHES: 0 DROPPED PREFETCHES: 0
L1I PREFETCHES SAME FILL-ORIGIN LEVEL: 0 DIFFERENT FILL-ORIGIN LEVEL: 0
L1I AVERAGE MISS LATENCY: 16.2117 cycles
L1I RQ	ACCESS:   54536722	FORWARD:          0	MERGED:   18001662	TO_CACHE:   36535060

BTB TOTAL     ACCESS:   25038739  HIT:   25036273  MISS:       2466  HIT %:    99.9902  MISS %: 0.00984874   MPKI: 0.01233
BTB BRANCH_DIRECT_JUMP	ACCESS:    2061595  HIT:    2061484  MISS:        111
BTB BRANCH_INDIRECT	ACCESS:          0  HIT:          0  MISS:          0
BTB BRANCH_CONDITIONAL	ACCESS:   22920818  HIT:   22920130  MISS:        688
BTB BRANCH_DIRECT_CALL	ACCESS:      28164  HIT:      28084  MISS:         80
BTB BRANCH_INDIRECT_CALL	ACCESS:          0  HIT:          0  MISS:          0
BTB BRANCH_RETURN	ACCESS:      28162  HIT:      26575  MISS:       1587
BTB BRANCH_OTHER ACCESS:          0  HIT:          0  MISS:          0

L2C TOTAL     ACCESS:       1176  HIT:       1158  MISS:         18  HIT %:    98.4694  MISS %:    1.53061   MPKI: 9e-05
L2C LOAD      ACCESS:       1176  HIT:       1158  MISS:         18  HIT %:    98.4694  MISS %:    1.53061   MPKI: 9e-05
L2C DATA LOAD MPKI: 0
L2C INSTRUCTION LOAD MPKI: 9e-05
L2C PREFETCH  REQUESTED:          0  ISSUED:          0  USEFUL:          0  USELESS:          0
L2C USEFUL LOAD PREFETCHES:          0 PREFETCH ISSUED TO LOWER LEVEL:          0  ACCURACY: -nan
L2C TIMELY PREFETCHES:          0 LATE PREFETCHES: 0 DROPPED PREFETCHES: 0
L2C PREFETCHES SAME FILL-ORIGIN LEVEL: 0 DIFFERENT FILL-ORIGIN LEVEL: 0
L2C AVERAGE MISS LATENCY: 144.444 cycles
L2C RQ	ACCESS:       1176	FORWARD:          0	MERGED:          0	TO_CACHE:       1176

L2C Instructions Evicting Data 0
L2C Translations Evicting Data 0
L2C Data Evicting Data 0
L2C Instructions Evicting Instructions 0
L2C Translations Evicting Instructions 0
L2C Data Evicting Instructions 0
L2C Instructions Evicting Translations 0
L2C Translations Evicting Translations 0
L2C Data Evicting Translations 0
L2C Dense regions hint from L2: 0
PSCL5 PREFETCH  REQUESTED:          0  ISSUED:          0  USEFUL:          0  USELESS:          0
PSCL5 USEFUL LOAD PREFETCHES:          0 PREFETCH ISSUED TO LOWER LEVEL:          0  ACCURACY: -nan
PSCL5 TIMELY PREFETCHES:          0 LATE PREFETCHES: 0 DROPPED PREFETCHES: 0
PSCL5 PREFETCHES SAME FILL-ORIGIN LEVEL: 0 DIFFERENT FILL-ORIGIN LEVEL: 0

PSCL4 PREFETCH  REQUESTED:          0  ISSUED:          0  USEFUL:          0  USELESS:          0
PSCL4 USEFUL LOAD PREFETCHES:          0 PREFETCH ISSUED TO LOWER LEVEL:          0  ACCURACY: -nan
PSCL4 TIMELY PREFETCHES:          0 LATE PREFETCHES: 0 DROPPED PREFETCHES: 0
PSCL4 PREFETCHES SAME FILL-ORIGIN LEVEL: 0 DIFFERENT FILL-ORIGIN LEVEL: 0

PSCL3 PREFETCH  REQUESTED:          0  ISSUED:          0  USEFUL:          0  USELESS:          0
PSCL3 USEFUL LOAD PREFETCHES:          0 PREFETCH ISSUED TO LOWER LEVEL:          0  ACCURACY: -nan
PSCL3 TIMELY PREFETCHES:          0 LATE PREFETCHES: 0 DROPPED PREFETCHES: 0
PSCL3 PREFETCHES SAME FILL-ORIGIN LEVEL: 0 DIFFERENT FILL-ORIGIN LEVEL: 0

PSCL2 PREFETCH  REQUESTED:          0  ISSUED:          0  USEFUL:          0  USELESS:          0
PSCL2 USEFUL LOAD PREFETCHES:          0 PREFETCH ISSUED TO LOWER LEVEL:          0  ACCURACY: -nan
PSCL2 TIMELY PREFETCHES:          0 LATE PREFETCHES: 0 DROPPED PREFETCHES: 0
PSCL2 PREFETCHES SAME FILL-ORIGIN LEVEL: 0 DIFFERENT FILL-ORIGIN LEVEL: 0

LLC TOTAL     ACCESS:         18  HIT:          0  MISS:         18  HIT %:          0  MISS %:        100   MPKI: 9e-05
LLC LOAD      ACCESS:         18  HIT:          0  MISS:         18  HIT %:          0  MISS %:        100   MPKI: 9e-05
LLC PREFETCH  REQUESTED:          0  ISSUED:          0  USEFUL:          0  USELESS:          0
LLC USEFUL LOAD PREFETCHES:          0 PREFETCH ISSUED TO LOWER LEVEL:          0  ACCURACY: -nan
LLC TIMELY PREFETCHES:          0 LATE PREFETCHES: 0 DROPPED PREFETCHES: 0
LLC PREFETCHES SAME FILL-ORIGIN LEVEL: 0 DIFFERENT FILL-ORIGIN LEVEL: 0
LLC AVERAGE MISS LATENCY: 114.444 cycles
LLC RQ	ACCESS:         18	FORWARD:          0	MERGED:          0	TO_CACHE:         18

LLC Dense regions hint to LLC: 0

RAW hits: 7497313
Loads Generated: 47459112
Loads sent to L1D: 39961798
Stores Generated: 33779505
Stores sent to L1D: 33779517
Major fault: 0 Minor fault: 57
Allocated PAGES: 57

DRAM Statistics
 CHANNEL 0
 RQ ROW_BUFFER_HIT:         10  ROW_BUFFER_MISS:          8
 DBUS_CONGESTED:          0
 WQ ROW_BUFFER_HIT:          0  ROW_BUFFER_MISS:          0  FULL:          0

 AVG_CONGESTED_CYCLE: -
 All warmup complete: 2
Channel 0 Bank busy for read cycles: 0
Channel 0 Bank busy for write cycles: 0
Channel 0
Rank 0
0banks busy for read cycles: 179178780
0banks busy for write cycles: 0
1banks busy for read cycles: 658
1banks busy for write cycles: 0
2banks busy for read cycles: 521
2banks busy for write cycles: 0
3banks busy for read cycles: 0
3banks busy for write cycles: 0
4banks busy for read cycles: 0
4banks busy for write cycles: 0
5banks busy for read cycles: 0
5banks busy for write cycles: 0
6banks busy for read cycles: 0
6banks busy for write cycles: 0
7banks busy for read cycles: 0
7banks busy for write cycles: 0
8banks busy for read cycles: 0
8banks busy for write cycles: 0

CPU 0 Branch Prediction Accuracy: 99.5667% MPKI: 0.552095 Average ROB Occupancy at Mispredict: 33.1872
Branch types
NOT_BRANCH: 172396929 86.1985%
BRANCH_DIRECT_JUMP: 2061595 1.0308%
BRANCH_INDIRECT: 0 0%
BRANCH_CONDITIONAL: 25484843 12.7424%
BRANCH_DIRECT_CALL: 28164 0.014082%
BRANCH_INDIRECT_CALL: 0 0%
BRANCH_RETURN: 28162 0.014081%
BRANCH_OTHER: 0 0%

DRAM PAGES: 1048576
Allocated PAGES: 57
