 (TOTAL 67349)
 
*** ChampSim Multicore Out-of-Order Simulator ***

Warmup Instructions: 50000000
Simulation Instructions: 200000000
Number of CPUs: 1
LLC sets: 2048
LLC ways: 16
Off-chip DRAM Size: 4096 MB Channels: 1 Width: 64-bit Data Rate: 6400 MT/s
argv[0]: ./ChampSim/Berti/bin/tagescl8kb-no-vberti-no-no-no-no-no-lru-lru-lru-srrip-drrip-lru-lru-lru-1core-no
argv[1]: -warmup_instructions
argv[2]: 50000000
argv[3]: -simulation_instructions
argv[4]: 200000000
argv[5]: -traces
argv[6]: traces/spec2k17_ten/623.xalancbmk_s-592B.champsimtrace.xz
CPU 0 runs traces/spec2k17_ten/623.xalancbmk_s-592B.champsimtrace.xz
.xz
CPU 0 Tage branch predictor
BTB has LRU replacement policy
ITLB has LRU replacement policy
DTLB has LRU replacement policy
STLB has LRU replacement policy
L1I has LRU replacement policy
History Sets: 8
History Ways: 16
BERTI Size: 16
BERTI Stride Size: 16
L1D has LRU replacement policy
Initialize SRRIP state for L2C
Initialize DRRIP state for LLC
Heartbeat CPU 0 instructions: 10000003 cycles: 3680509 heartbeat IPC: 2.71702 cumulative IPC: 2.71702 (Simulation time: 0 hr 4 min 41 sec) 
Heartbeat CPU 0 instructions: 20000000 cycles: 7224901 heartbeat IPC: 2.82136 cumulative IPC: 2.7682 (Simulation time: 0 hr 11 min 36 sec) 
Heartbeat CPU 0 instructions: 30000000 cycles: 10789484 heartbeat IPC: 2.80538 cumulative IPC: 2.78049 (Simulation time: 0 hr 19 min 58 sec) 
Heartbeat CPU 0 instructions: 40000001 cycles: 14452723 heartbeat IPC: 2.72982 cumulative IPC: 2.76764 (Simulation time: 0 hr 24 min 42 sec) 
Heartbeat CPU 0 instructions: 50000000 cycles: 18128503 heartbeat IPC: 2.72051 cumulative IPC: 2.75809 (Simulation time: 0 hr 31 min 20 sec) 

Warmup complete CPU 0 instructions: 50000004 cycles: 18128504 (Simulation time: 0 hr 31 min 20 sec) 

Heartbeat CPU 0 instructions: 60000000 cycles: 44030509 heartbeat IPC: 0.38607 cumulative IPC: 0.38607 (Simulation time: 0 hr 39 min 13 sec) 
Heartbeat CPU 0 instructions: 70000002 cycles: 68492949 heartbeat IPC: 0.40879 cumulative IPC: 0.397105 (Simulation time: 0 hr 45 min 37 sec) 
Heartbeat CPU 0 instructions: 80000001 cycles: 84264573 heartbeat IPC: 0.63405 cumulative IPC: 0.45361 (Simulation time: 0 hr 52 min 12 sec) 
Heartbeat CPU 0 instructions: 90000001 cycles: 97490922 heartbeat IPC: 0.756067 cumulative IPC: 0.504017 (Simulation time: 0 hr 59 min 4 sec) 
Heartbeat CPU 0 instructions: 100000001 cycles: 112863649 heartbeat IPC: 0.650503 cumulative IPC: 0.527787 (Simulation time: 1 hr 6 min 52 sec) 
Heartbeat CPU 0 instructions: 110000000 cycles: 135824797 heartbeat IPC: 0.435518 cumulative IPC: 0.509787 (Simulation time: 1 hr 16 min 46 sec) 
Heartbeat CPU 0 instructions: 120000002 cycles: 167012072 heartbeat IPC: 0.320644 cumulative IPC: 0.470166 (Simulation time: 1 hr 25 min 49 sec) 
Heartbeat CPU 0 instructions: 130000003 cycles: 194808577 heartbeat IPC: 0.359757 cumulative IPC: 0.452796 (Simulation time: 1 hr 33 min 58 sec) 
Heartbeat CPU 0 instructions: 140000000 cycles: 220603320 heartbeat IPC: 0.387676 cumulative IPC: 0.4445 (Simulation time: 1 hr 41 min 16 sec) 
Heartbeat CPU 0 instructions: 150000001 cycles: 240480738 heartbeat IPC: 0.503084 cumulative IPC: 0.449737 (Simulation time: 1 hr 48 min 8 sec) 
Heartbeat CPU 0 instructions: 160000001 cycles: 253961122 heartbeat IPC: 0.741819 cumulative IPC: 0.466433 (Simulation time: 1 hr 53 min 10 sec) 
Heartbeat CPU 0 instructions: 170000003 cycles: 270292237 heartbeat IPC: 0.612328 cumulative IPC: 0.475881 (Simulation time: 1 hr 58 min 12 sec) 
Heartbeat CPU 0 instructions: 180000002 cycles: 297998276 heartbeat IPC: 0.360932 cumulative IPC: 0.464502 (Simulation time: 2 hr 4 min 53 sec) 
Heartbeat CPU 0 instructions: 190000000 cycles: 328138828 heartbeat IPC: 0.331779 cumulative IPC: 0.451598 (Simulation time: 2 hr 9 min 24 sec) 
Heartbeat CPU 0 instructions: 200000001 cycles: 348049998 heartbeat IPC: 0.502231 cumulative IPC: 0.454654 (Simulation time: 2 hr 12 min 13 sec) 
Heartbeat CPU 0 instructions: 210000001 cycles: 376815981 heartbeat IPC: 0.347633 cumulative IPC: 0.446071 (Simulation time: 2 hr 15 min 38 sec) 
Heartbeat CPU 0 instructions: 220000000 cycles: 407192578 heartbeat IPC: 0.329201 cumulative IPC: 0.436946 (Simulation time: 2 hr 18 min 54 sec) 
Heartbeat CPU 0 instructions: 230000001 cycles: 434546700 heartbeat IPC: 0.365576 cumulative IPC: 0.432258 (Simulation time: 2 hr 21 min 56 sec) 
Heartbeat CPU 0 instructions: 240000000 cycles: 460001236 heartbeat IPC: 0.392857 cumulative IPC: 0.429988 (Simulation time: 2 hr 24 min 45 sec) 
Heartbeat CPU 0 instructions: 250000000 cycles: 484040069 heartbeat IPC: 0.415994 cumulative IPC: 0.429266 (Simulation time: 2 hr 26 min 57 sec) 
Finished CPU 0 instructions: 200000000 cycles: 465911566 cumulative IPC: 0.429266 (Simulation time: 2 hr 26 min 57 sec) 

ChampSim completed all CPUs

Region of Interest Statistics

CPU 0 cumulative IPC: 0.429266 instructions: 200000000 cycles: 465911566
ITLB TOTAL     ACCESS:   39287244  HIT:   39187485  MISS:      99759  HIT %:    99.7461  MISS %:   0.253922   MPKI: 0.498795
ITLB LOAD TRANSLATION ACCESS:   39287244  HIT:   39187485  MISS:      99759  HIT %:    99.7461  MISS %:   0.253922   MPKI: 0.498795
ITLB PREFETCH  REQUESTED:          0  ISSUED:          0  USEFUL:          0  USELESS:          0
ITLB USEFUL LOAD PREFETCHES:          0 PREFETCH ISSUED TO LOWER LEVEL:          0  ACCURACY: -nan
ITLB TIMELY PREFETCHES:          0 LATE PREFETCHES: 0 DROPPED PREFETCHES: 0
ITLB PREFETCHES SAME FILL-ORIGIN LEVEL: 0 DIFFERENT FILL-ORIGIN LEVEL: 0
ITLB AVERAGE MISS LATENCY: 10.3641 cycles
ITLB RQ	ACCESS:   43886187	FORWARD:          0	MERGED:    4577565	TO_CACHE:   39308622

DTLB TOTAL     ACCESS:   41032634  HIT:   36088569  MISS:    4944065  HIT %:    87.9509  MISS %:    12.0491   MPKI: 24.7203
DTLB LOAD TRANSLATION ACCESS:   41032634  HIT:   36088569  MISS:    4944065  HIT %:    87.9509  MISS %:    12.0491   MPKI: 24.7203
DTLB PREFETCH  REQUESTED:          0  ISSUED:          0  USEFUL:          0  USELESS:          0
DTLB USEFUL LOAD PREFETCHES:          0 PREFETCH ISSUED TO LOWER LEVEL:          0  ACCURACY: -nan
DTLB TIMELY PREFETCHES:          0 LATE PREFETCHES: 0 DROPPED PREFETCHES: 0
DTLB PREFETCHES SAME FILL-ORIGIN LEVEL: 0 DIFFERENT FILL-ORIGIN LEVEL: 0
DTLB AVERAGE MISS LATENCY: 10.3133 cycles
DTLB RQ	ACCESS:   47818621	FORWARD:          0	MERGED:    6689938	TO_CACHE:   41128683

STLB TOTAL     ACCESS:    8567034  HIT:    8283213  MISS:     283821  HIT %:    96.6871  MISS %:    3.31294   MPKI: 1.41911
STLB LOAD TRANSLATION ACCESS:    5043824  HIT:    4763458  MISS:     280366  HIT %:    94.4414  MISS %:     5.5586   MPKI: 1.40183
STLB TRANSLATION FROM L1D PREFETCHER ACCESS:    3523210  HIT:    3519755  MISS:       3455  HIT %:    99.9019  MISS %:   0.098064   MPKI: 0.017275
STLB PREFETCH  REQUESTED:          0  ISSUED:          0  USEFUL:       3325  USELESS:        125
STLB USEFUL LOAD PREFETCHES:       3325 PREFETCH ISSUED TO LOWER LEVEL:          0  ACCURACY: inf
STLB TIMELY PREFETCHES:       3325 LATE PREFETCHES: 43 DROPPED PREFETCHES: 34419
STLB PREFETCHES SAME FILL-ORIGIN LEVEL: 0 DIFFERENT FILL-ORIGIN LEVEL: 0
STLB AVERAGE MISS LATENCY: 23.6144 cycles
STLB RQ	ACCESS:   21491392	FORWARD:          0	MERGED:   12889156	TO_CACHE:    8602236

STLB Hit, L1D data hit: 0
STLB Hit, L2C data hit: 0
STLB Hit, LLC data hit: 0
STLB Hit, LLC data miss: 0
STLB STLB hints to L2: 0
L1D TOTAL     ACCESS:   61102344  HIT:   52205936  MISS:    8896408  HIT %:    85.4402  MISS %:    14.5598   MPKI: 44.482
L1D LOAD      ACCESS:   33266396  HIT:   25252481  MISS:    8013915  HIT %:    75.9099  MISS %:    24.0901   MPKI: 40.0696
L1D RFO       ACCESS:   13229769  HIT:   12835884  MISS:     393885  HIT %:    97.0227  MISS %:    2.97726   MPKI: 1.96942
L1D PREFETCH  ACCESS:   14606179  HIT:   14117571  MISS:     488608  HIT %:    96.6548  MISS %:    3.34521   MPKI: 2.44304
L1D PREFETCH  REQUESTED:   41343111  ISSUED:   41312361  USEFUL:     448039  USELESS:      40557
L1D USEFUL LOAD PREFETCHES:     448039 PREFETCH ISSUED TO LOWER LEVEL:    2196509  ACCURACY: 20.3978
L1D TIMELY PREFETCHES:     448039 LATE PREFETCHES: 6806 DROPPED PREFETCHES: 37727
L1D PREFETCHES SAME FILL-ORIGIN LEVEL: 495871 DIFFERENT FILL-ORIGIN LEVEL: 1700638
L1D AVERAGE MISS LATENCY: 22.3 cycles
L1D RQ	ACCESS:   61972062	FORWARD:          0	MERGED:   27097430	TO_CACHE:   33568293
L1D WQ	ACCESS:   14439353	FORWARD:    1306370	MERGED:     189025	TO_CACHE:   14250328
L1D PQ	ACCESS:   24864793	FORWARD:          0	MERGED:    8417194	TO_CACHE:   16447568

L1D UNIQUE REGIONS ACCESSED: 0
L1D REGIONS CONFLICTS: 0
L1D Cross Page Prefetch Requests: 4328113
L1D Same Page Prefetch Requests: 24129889
L1D ROI Sum of L1D PQ occupancy: 234748308
L1D PREFETCHES PUSHED FROM L2C: 0
L1I TOTAL     ACCESS:   43771561  HIT:   43290674  MISS:     480887  HIT %:    98.9014  MISS %:    1.09863   MPKI: 2.40443
L1I LOAD      ACCESS:   43771561  HIT:   43290674  MISS:     480887  HIT %:    98.9014  MISS %:    1.09863   MPKI: 2.40443
L1I PREFETCH  REQUESTED:          0  ISSUED:          0  USEFUL:          0  USELESS:          0
L1I USEFUL LOAD PREFETCHES:          0 PREFETCH ISSUED TO LOWER LEVEL:          0  ACCURACY: -nan
L1I TIMELY PREFETCHES:          0 LATE PREFETCHES: 0 DROPPED PREFETCHES: 0
L1I PREFETCHES SAME FILL-ORIGIN LEVEL: 0 DIFFERENT FILL-ORIGIN LEVEL: 0
L1I AVERAGE MISS LATENCY: 15.506 cycles
L1I RQ	ACCESS:   56812759	FORWARD:          0	MERGED:   12926572	TO_CACHE:   43886187

BTB TOTAL     ACCESS:   36570571  HIT:   34805262  MISS:    1765309  HIT %:    95.1729  MISS %:    4.82713   MPKI: 8.82654
BTB BRANCH_DIRECT_JUMP	ACCESS:    1537302  HIT:    1529898  MISS:       7404
BTB BRANCH_INDIRECT	ACCESS:     531807  HIT:     447578  MISS:      84229
BTB BRANCH_CONDITIONAL	ACCESS:   28493703  HIT:   28492938  MISS:        765
BTB BRANCH_DIRECT_CALL	ACCESS:    1917769  HIT:    1914266  MISS:       3503
BTB BRANCH_INDIRECT_CALL	ACCESS:    1086112  HIT:     936302  MISS:     149810
BTB BRANCH_RETURN	ACCESS:    3003878  HIT:    1484280  MISS:    1519598
BTB BRANCH_OTHER ACCESS:          0  HIT:          0  MISS:          0

L2C TOTAL     ACCESS:   11946231  HIT:   11300519  MISS:     645712  HIT %:    94.5948  MISS %:    5.40515   MPKI: 3.22856
L2C LOAD      ACCESS:    8487956  HIT:    8237790  MISS:     250166  HIT %:    97.0527  MISS %:    2.94731   MPKI: 1.25083
L2C DATA LOAD MPKI: 1.22037
L2C INSTRUCTION LOAD MPKI: 0.03046
L2C RFO       ACCESS:     393426  HIT:      55209  MISS:     338217  HIT %:    14.0329  MISS %:    85.9671   MPKI: 1.69108
L2C PREFETCH  ACCESS:    2185724  HIT:    2153864  MISS:      31860  HIT %:    98.5424  MISS %:    1.45764   MPKI: 0.1593
L2C DATA PREFETCH MPKI: 0.1593
L2C INSTRUCTION PREFETCH MPKI: 0
L2C WRITEBACK ACCESS:     558364  HIT:     551285  MISS:       7079  HIT %:    98.7322  MISS %:    1.26781   MPKI: 0.035395
L2C LOAD TRANSLATION ACCESS:     282792  HIT:     266118  MISS:      16674  HIT %:    94.1038  MISS %:    5.89621   MPKI: 0.08337
L2C TRANSLATION FROM L1D PREFETCHER ACCESS:      37969  HIT:      36253  MISS:       1716  HIT %:    95.4805  MISS %:    4.51948   MPKI: 0.00858
L2C PREFETCH  REQUESTED:          0  ISSUED:          0  USEFUL:       6561  USELESS:      27160
L2C USEFUL LOAD PREFETCHES:       6561 PREFETCH ISSUED TO LOWER LEVEL:      32164  ACCURACY: 20.3986
L2C TIMELY PREFETCHES:       6561 LATE PREFETCHES: 304 DROPPED PREFETCHES: 0
L2C PREFETCHES SAME FILL-ORIGIN LEVEL: 26070 DIFFERENT FILL-ORIGIN LEVEL: 0
L2C AVERAGE MISS LATENCY: 105 cycles
L2C RQ	ACCESS:    9202185	FORWARD:          0	MERGED:          0	TO_CACHE:    9202143
L2C WQ	ACCESS:     558364	FORWARD:        298	MERGED:          0	TO_CACHE:     558364
L2C PQ	ACCESS:    2196509	FORWARD:          0	MERGED:       1269	TO_CACHE:    2194984

L2C Instructions Evicting Data 5242
L2C Translations Evicting Data 17473
L2C Data Evicting Data 591717
L2C Instructions Evicting Instructions 505
L2C Translations Evicting Instructions 249
L2C Data Evicting Instructions 5238
L2C Instructions Evicting Translations 345
L2C Translations Evicting Translations 668
L2C Data Evicting Translations 17196
L2C Dense regions hint from L2: 0
PSCL5 TOTAL     ACCESS:     318240  HIT:     318240  MISS:          0  HIT %:        100  MISS %:          0   MPKI: 0
PSCL5 LOAD TRANSLATION ACCESS:     280323  HIT:     280323  MISS:          0  HIT %:        100  MISS %:          0   MPKI: 0
PSCL5 TRANSLATION FROM L1D PREFETCHER ACCESS:      37917  HIT:      37917  MISS:          0  HIT %:        100  MISS %:          0   MPKI: 0
PSCL5 PREFETCH  REQUESTED:          0  ISSUED:          0  USEFUL:          0  USELESS:          0
PSCL5 USEFUL LOAD PREFETCHES:          0 PREFETCH ISSUED TO LOWER LEVEL:          0  ACCURACY: -nan
PSCL5 TIMELY PREFETCHES:          0 LATE PREFETCHES: 0 DROPPED PREFETCHES: 0
PSCL5 PREFETCHES SAME FILL-ORIGIN LEVEL: 0 DIFFERENT FILL-ORIGIN LEVEL: 0

PSCL4 TOTAL     ACCESS:     318240  HIT:     318240  MISS:          0  HIT %:        100  MISS %:          0   MPKI: 0
PSCL4 LOAD TRANSLATION ACCESS:     280323  HIT:     280323  MISS:          0  HIT %:        100  MISS %:          0   MPKI: 0
PSCL4 TRANSLATION FROM L1D PREFETCHER ACCESS:      37917  HIT:      37917  MISS:          0  HIT %:        100  MISS %:          0   MPKI: 0
PSCL4 PREFETCH  REQUESTED:          0  ISSUED:          0  USEFUL:          0  USELESS:          0
PSCL4 USEFUL LOAD PREFETCHES:          0 PREFETCH ISSUED TO LOWER LEVEL:          0  ACCURACY: -nan
PSCL4 TIMELY PREFETCHES:          0 LATE PREFETCHES: 0 DROPPED PREFETCHES: 0
PSCL4 PREFETCHES SAME FILL-ORIGIN LEVEL: 0 DIFFERENT FILL-ORIGIN LEVEL: 0

PSCL3 TOTAL     ACCESS:     318240  HIT:     318240  MISS:          0  HIT %:        100  MISS %:          0   MPKI: 0
PSCL3 LOAD TRANSLATION ACCESS:     280323  HIT:     280323  MISS:          0  HIT %:        100  MISS %:          0   MPKI: 0
PSCL3 TRANSLATION FROM L1D PREFETCHER ACCESS:      37917  HIT:      37917  MISS:          0  HIT %:        100  MISS %:          0   MPKI: 0
PSCL3 PREFETCH  REQUESTED:          0  ISSUED:          0  USEFUL:          0  USELESS:          0
PSCL3 USEFUL LOAD PREFETCHES:          0 PREFETCH ISSUED TO LOWER LEVEL:          0  ACCURACY: -nan
PSCL3 TIMELY PREFETCHES:          0 LATE PREFETCHES: 0 DROPPED PREFETCHES: 0
PSCL3 PREFETCHES SAME FILL-ORIGIN LEVEL: 0 DIFFERENT FILL-ORIGIN LEVEL: 0

PSCL2 TOTAL     ACCESS:     318198  HIT:     315718  MISS:       2480  HIT %:    99.2206  MISS %:   0.779389   MPKI: 0.0124
PSCL2 LOAD TRANSLATION ACCESS:     280333  HIT:     277853  MISS:       2480  HIT %:    99.1153  MISS %:   0.884662   MPKI: 0.0124
PSCL2 TRANSLATION FROM L1D PREFETCHER ACCESS:      37865  HIT:      37865  MISS:          0  HIT %:        100  MISS %:          0   MPKI: 0
PSCL2 PREFETCH  REQUESTED:          0  ISSUED:          0  USEFUL:          0  USELESS:          0
PSCL2 USEFUL LOAD PREFETCHES:          0 PREFETCH ISSUED TO LOWER LEVEL:          0  ACCURACY: -nan
PSCL2 TIMELY PREFETCHES:          0 LATE PREFETCHES: 0 DROPPED PREFETCHES: 0
PSCL2 PREFETCHES SAME FILL-ORIGIN LEVEL: 0 DIFFERENT FILL-ORIGIN LEVEL: 0

LLC TOTAL     ACCESS:    1023520  HIT:     641916  MISS:     381604  HIT %:    62.7165  MISS %:    37.2835   MPKI: 1.90802
LLC LOAD      ACCESS:     250043  HIT:     205688  MISS:      44355  HIT %:    82.2611  MISS %:    17.7389   MPKI: 0.221775
LLC RFO       ACCESS:     338034  HIT:      19795  MISS:     318239  HIT %:    5.85592  MISS %:    94.1441   MPKI: 1.59119
LLC PREFETCH  ACCESS:      32164  HIT:      21528  MISS:      10636  HIT %:     66.932  MISS %:     33.068   MPKI: 0.05318
LLC WRITEBACK ACCESS:     384889  HIT:     379004  MISS:       5885  HIT %:     98.471  MISS %:    1.52901   MPKI: 0.029425
LLC LOAD TRANSLATION ACCESS:      16674  HIT:      14254  MISS:       2420  HIT %:    85.4864  MISS %:    14.5136   MPKI: 0.0121
LLC TRANSLATION FROM L1D PREFETCHER ACCESS:       1716  HIT:       1647  MISS:         69  HIT %:     95.979  MISS %:    4.02098   MPKI: 0.000345
LLC PREFETCH  REQUESTED:          0  ISSUED:          0  USEFUL:       1492  USELESS:       9008
LLC USEFUL LOAD PREFETCHES:       1492 PREFETCH ISSUED TO LOWER LEVEL:      10636  ACCURACY: 14.0278
LLC TIMELY PREFETCHES:       1492 LATE PREFETCHES: 0 DROPPED PREFETCHES: 0
LLC PREFETCHES SAME FILL-ORIGIN LEVEL: 0 DIFFERENT FILL-ORIGIN LEVEL: 0
LLC AVERAGE MISS LATENCY: 127.481 cycles
LLC RQ	ACCESS:     606469	FORWARD:          0	MERGED:          0	TO_CACHE:     606467
LLC WQ	ACCESS:     384889	FORWARD:          2	MERGED:          0	TO_CACHE:     384889
LLC PQ	ACCESS:      32164	FORWARD:          0	MERGED:          0	TO_CACHE:      32164

LLC Dense regions hint to LLC: 0

RAW hits: 632266
Loads Generated: 62604331
Loads sent to L1D: 61972062
Stores Generated: 14439353
Stores sent to L1D: 14439353
Major fault: 0 Minor fault: 5095
Allocated PAGES: 5095

DRAM Statistics
 CHANNEL 0
 RQ ROW_BUFFER_HIT:     206281  ROW_BUFFER_MISS:     169437
 DBUS_CONGESTED:        134
 WQ ROW_BUFFER_HIT:      50824  ROW_BUFFER_MISS:     299319  FULL:          0

 AVG_CONGESTED_CYCLE: 6
 All warmup complete: 2
Channel 0 Bank busy for read cycles: 0
Channel 0 Bank busy for write cycles: 0
Channel 0
Rank 0
0banks busy for read cycles: 434441364
0banks busy for write cycles: 62992
1banks busy for read cycles: 9848787
1banks busy for write cycles: 7774019
2banks busy for read cycles: 1694530
2banks busy for write cycles: 2096342
3banks busy for read cycles: 752704
3banks busy for write cycles: 606696
4banks busy for read cycles: 1015272
4banks busy for write cycles: 419690
5banks busy for read cycles: 486962
5banks busy for write cycles: 390031
6banks busy for read cycles: 479951
6banks busy for write cycles: 454076
7banks busy for read cycles: 503347
7banks busy for write cycles: 773829
8banks busy for read cycles: 929718
8banks busy for write cycles: 3181257

CPU 0 Branch Prediction Accuracy: 99.8123% MPKI: 0.46697 Average ROB Occupancy at Mispredict: 90.675
Branch types
NOT_BRANCH: 142153356 71.0767%
BRANCH_DIRECT_JUMP: 1537302 0.768651%
BRANCH_INDIRECT: 531807 0.265904%
BRANCH_CONDITIONAL: 49769441 24.8847%
BRANCH_DIRECT_CALL: 1917769 0.958885%
BRANCH_INDIRECT_CALL: 1086112 0.543056%
BRANCH_RETURN: 3003878 1.50194%
BRANCH_OTHER: 0 0%

DRAM PAGES: 1048576
Allocated PAGES: 5095
