526208 bits of metadata so far, 405638 left out of 526336 total budget
table size is 13521 bits, 2253 entries for 5 bit, 1931 entries for 6 bit
526208 total bits (64.23KB)

*** ChampSim Multicore Out-of-Order Simulator ***

Warmup Instructions: 50000000
Simulation Instructions: 200000000
Number of CPUs: 1
LLC sets: 2048
LLC ways: 16
Off-chip DRAM Size: 4096 MB Channels: 1 Width: 64-bit Data Rate: 6400 MT/s
argv[0]: ./ChampSim/Berti/bin/multiperspective_perceptron-no-vberti-no-no-no-no-no-lru-lru-lru-srrip-drrip-lru-lru-lru-1core-no
argv[1]: -warmup_instructions
argv[2]: 50000000
argv[3]: -simulation_instructions
argv[4]: 200000000
argv[5]: -traces
argv[6]: traces/spec2k17_ten/602.gcc_s-1850B.champsimtrace.xz
CPU 0 runs traces/spec2k17_ten/602.gcc_s-1850B.champsimtrace.xz
.xz
CPU 0 Multiperspective perceptron branch predictor
BTB has LRU replacement policy
ITLB has LRU replacement policy
DTLB has LRU replacement policy
STLB has LRU replacement policy
L1I has LRU replacement policy
History Sets: 8
History Ways: 16
BERTI Size: 16
BERTI Stride Size: 16
L1D has LRU replacement policy
Initialize SRRIP state for L2C
Initialize DRRIP state for LLC
Heartbeat CPU 0 instructions: 10000002 cycles: 3263051 heartbeat IPC: 3.06462 cumulative IPC: 3.06462 (Simulation time: 0 hr 8 min 41 sec) 
Heartbeat CPU 0 instructions: 20000000 cycles: 6526415 heartbeat IPC: 3.06432 cumulative IPC: 3.06447 (Simulation time: 0 hr 12 min 23 sec) 
Heartbeat CPU 0 instructions: 30000000 cycles: 9788590 heartbeat IPC: 3.06544 cumulative IPC: 3.06479 (Simulation time: 0 hr 15 min 57 sec) 
Heartbeat CPU 0 instructions: 40000000 cycles: 13051010 heartbeat IPC: 3.06521 cumulative IPC: 3.0649 (Simulation time: 0 hr 18 min 22 sec) 
Heartbeat CPU 0 instructions: 50000000 cycles: 16314482 heartbeat IPC: 3.06422 cumulative IPC: 3.06476 (Simulation time: 0 hr 23 min 51 sec) 

Warmup complete CPU 0 instructions: 50000004 cycles: 16314483 (Simulation time: 0 hr 23 min 51 sec) 

Heartbeat CPU 0 instructions: 60000003 cycles: 39340269 heartbeat IPC: 0.434296 cumulative IPC: 0.434296 (Simulation time: 0 hr 32 min 46 sec) 
Heartbeat CPU 0 instructions: 70000002 cycles: 62361170 heartbeat IPC: 0.434388 cumulative IPC: 0.434342 (Simulation time: 0 hr 42 min 20 sec) 
Heartbeat CPU 0 instructions: 80000003 cycles: 85375406 heartbeat IPC: 0.434514 cumulative IPC: 0.434399 (Simulation time: 0 hr 50 min 32 sec) 
Heartbeat CPU 0 instructions: 90000001 cycles: 108407653 heartbeat IPC: 0.434174 cumulative IPC: 0.434343 (Simulation time: 0 hr 59 min 26 sec) 
Heartbeat CPU 0 instructions: 100000000 cycles: 131417320 heartbeat IPC: 0.4346 cumulative IPC: 0.434394 (Simulation time: 1 hr 8 min 23 sec) 
Heartbeat CPU 0 instructions: 110000000 cycles: 154501884 heartbeat IPC: 0.43319 cumulative IPC: 0.434193 (Simulation time: 1 hr 16 min 40 sec) 
Heartbeat CPU 0 instructions: 120000003 cycles: 177605856 heartbeat IPC: 0.432826 cumulative IPC: 0.433997 (Simulation time: 1 hr 23 min 36 sec) 
Heartbeat CPU 0 instructions: 130000003 cycles: 200663909 heartbeat IPC: 0.433688 cumulative IPC: 0.433959 (Simulation time: 1 hr 31 min 16 sec) 
Heartbeat CPU 0 instructions: 140000000 cycles: 223665913 heartbeat IPC: 0.434745 cumulative IPC: 0.434046 (Simulation time: 1 hr 37 min 19 sec) 
Heartbeat CPU 0 instructions: 150000000 cycles: 246683256 heartbeat IPC: 0.434455 cumulative IPC: 0.434087 (Simulation time: 1 hr 42 min 21 sec) 
Heartbeat CPU 0 instructions: 160000000 cycles: 269760011 heartbeat IPC: 0.433336 cumulative IPC: 0.434018 (Simulation time: 1 hr 45 min 44 sec) 
Heartbeat CPU 0 instructions: 170000003 cycles: 292856053 heartbeat IPC: 0.432975 cumulative IPC: 0.433931 (Simulation time: 1 hr 49 min 6 sec) 
Heartbeat CPU 0 instructions: 180000000 cycles: 315893081 heartbeat IPC: 0.434084 cumulative IPC: 0.433943 (Simulation time: 1 hr 51 min 46 sec) 
Heartbeat CPU 0 instructions: 190000003 cycles: 339019124 heartbeat IPC: 0.432413 cumulative IPC: 0.433833 (Simulation time: 1 hr 53 min 57 sec) 
Heartbeat CPU 0 instructions: 200000000 cycles: 362010285 heartbeat IPC: 0.43495 cumulative IPC: 0.433907 (Simulation time: 1 hr 55 min 33 sec) 
Heartbeat CPU 0 instructions: 210000002 cycles: 385063370 heartbeat IPC: 0.433782 cumulative IPC: 0.4339 (Simulation time: 1 hr 57 min 0 sec) 
Heartbeat CPU 0 instructions: 220000000 cycles: 408221220 heartbeat IPC: 0.431819 cumulative IPC: 0.433777 (Simulation time: 1 hr 58 min 24 sec) 
Heartbeat CPU 0 instructions: 230000003 cycles: 431298435 heartbeat IPC: 0.433328 cumulative IPC: 0.433752 (Simulation time: 1 hr 59 min 37 sec) 
Heartbeat CPU 0 instructions: 240000000 cycles: 454354283 heartbeat IPC: 0.433729 cumulative IPC: 0.433751 (Simulation time: 2 hr 0 min 47 sec) 
Heartbeat CPU 0 instructions: 250000000 cycles: 477447247 heartbeat IPC: 0.433032 cumulative IPC: 0.433715 (Simulation time: 2 hr 1 min 57 sec) 
Finished CPU 0 instructions: 200000000 cycles: 461132765 cumulative IPC: 0.433715 (Simulation time: 2 hr 1 min 57 sec) 

ChampSim completed all CPUs

Region of Interest Statistics

CPU 0 cumulative IPC: 0.433715 instructions: 200000000 cycles: 461132765
ITLB TOTAL     ACCESS:   44368143  HIT:   44368143  MISS:          0  HIT %:        100  MISS %:          0   MPKI: 0
ITLB LOAD TRANSLATION ACCESS:   44368143  HIT:   44368143  MISS:          0  HIT %:        100  MISS %:          0   MPKI: 0
ITLB PREFETCH  REQUESTED:          0  ISSUED:          0  USEFUL:          0  USELESS:          0
ITLB USEFUL LOAD PREFETCHES:          0 PREFETCH ISSUED TO LOWER LEVEL:          0  ACCURACY: -nan
ITLB TIMELY PREFETCHES:          0 LATE PREFETCHES: 0 DROPPED PREFETCHES: 0
ITLB PREFETCHES SAME FILL-ORIGIN LEVEL: 0 DIFFERENT FILL-ORIGIN LEVEL: 0
ITLB AVERAGE MISS LATENCY: -nan cycles
ITLB RQ	ACCESS:   50294006	FORWARD:          0	MERGED:    5925864	TO_CACHE:   44368142

DTLB TOTAL     ACCESS:   54649752  HIT:   54583610  MISS:      66142  HIT %:     99.879  MISS %:   0.121029   MPKI: 0.33071
DTLB LOAD TRANSLATION ACCESS:   54649752  HIT:   54583610  MISS:      66142  HIT %:     99.879  MISS %:   0.121029   MPKI: 0.33071
DTLB PREFETCH  REQUESTED:          0  ISSUED:          0  USEFUL:          0  USELESS:          0
DTLB USEFUL LOAD PREFETCHES:          0 PREFETCH ISSUED TO LOWER LEVEL:          0  ACCURACY: -nan
DTLB TIMELY PREFETCHES:          0 LATE PREFETCHES: 0 DROPPED PREFETCHES: 0
DTLB PREFETCHES SAME FILL-ORIGIN LEVEL: 0 DIFFERENT FILL-ORIGIN LEVEL: 0
DTLB AVERAGE MISS LATENCY: 120.106 cycles
DTLB RQ	ACCESS:   56020679	FORWARD:          0	MERGED:    1368963	TO_CACHE:   54651716

STLB TOTAL     ACCESS:    9594794  HIT:    9533877  MISS:      60917  HIT %:    99.3651  MISS %:   0.634896   MPKI: 0.304585
STLB LOAD TRANSLATION ACCESS:      66142  HIT:       5318  MISS:      60824  HIT %:    8.04028  MISS %:    91.9597   MPKI: 0.30412
STLB TRANSLATION FROM L1D PREFETCHER ACCESS:    9528652  HIT:    9528559  MISS:         93  HIT %:     99.999  MISS %: 0.000976004   MPKI: 0.000465
STLB PREFETCH  REQUESTED:          0  ISSUED:          0  USEFUL:         83  USELESS:         10
STLB USEFUL LOAD PREFETCHES:         83 PREFETCH ISSUED TO LOWER LEVEL:          0  ACCURACY: inf
STLB TIMELY PREFETCHES:         83 LATE PREFETCHES: 8112 DROPPED PREFETCHES: 1325247
STLB PREFETCHES SAME FILL-ORIGIN LEVEL: 0 DIFFERENT FILL-ORIGIN LEVEL: 0
STLB AVERAGE MISS LATENCY: 113.194 cycles
STLB RQ	ACCESS:   52752813	FORWARD:          0	MERGED:   41536860	TO_CACHE:   11215953

STLB Hit, L1D data hit: 0
STLB Hit, L2C data hit: 0
STLB Hit, LLC data hit: 0
STLB Hit, LLC data miss: 0
STLB STLB hints to L2: 0
L1D TOTAL     ACCESS:   91499671  HIT:   86914049  MISS:    4585622  HIT %:    94.9884  MISS %:    5.01163   MPKI: 22.9281
L1D LOAD      ACCESS:   38678156  HIT:   37498088  MISS:    1180068  HIT %:     96.949  MISS %:    3.05099   MPKI: 5.90034
L1D RFO       ACCESS:   17263553  HIT:   17261948  MISS:       1605  HIT %:    99.9907  MISS %: 0.00929704   MPKI: 0.008025
L1D PREFETCH  ACCESS:   35557962  HIT:   32154013  MISS:    3403949  HIT %:     90.427  MISS %:    9.57296   MPKI: 17.0197
L1D PREFETCH  REQUESTED:  116790320  ISSUED:  116574307  USEFUL:    3308948  USELESS:      95027
L1D USEFUL LOAD PREFETCHES:    3308948 PREFETCH ISSUED TO LOWER LEVEL:   15743696  ACCURACY: 21.0176
L1D TIMELY PREFETCHES:    3308948 LATE PREFETCHES: 11164 DROPPED PREFETCHES: 3932107
L1D PREFETCHES SAME FILL-ORIGIN LEVEL: 3415113 DIFFERENT FILL-ORIGIN LEVEL: 12328583
L1D AVERAGE MISS LATENCY: 45.0725 cycles
L1D RQ	ACCESS:   55595095	FORWARD:          0	MERGED:   16837929	TO_CACHE:   38757125
L1D WQ	ACCESS:   19411013	FORWARD:         41	MERGED:    2147459	TO_CACHE:   17263554
L1D PQ	ACCESS:   63887636	FORWARD:          0	MERGED:   11200965	TO_CACHE:   52686671

L1D UNIQUE REGIONS ACCESSED: 0
L1D REGIONS CONFLICTS: 0
L1D Cross Page Prefetch Requests: 10227119
L1D Same Page Prefetch Requests: 69117656
L1D ROI Sum of L1D PQ occupancy: 922226959
L1D PREFETCHES PUSHED FROM L2C: 0
L1I TOTAL     ACCESS:   50294005  HIT:   50294005  MISS:          0  HIT %:        100  MISS %:          0   MPKI: 0
L1I LOAD      ACCESS:   50294005  HIT:   50294005  MISS:          0  HIT %:        100  MISS %:          0   MPKI: 0
L1I PREFETCH  REQUESTED:          0  ISSUED:          0  USEFUL:          0  USELESS:          0
L1I USEFUL LOAD PREFETCHES:          0 PREFETCH ISSUED TO LOWER LEVEL:          0  ACCURACY: -nan
L1I TIMELY PREFETCHES:          0 LATE PREFETCHES: 0 DROPPED PREFETCHES: 0
L1I PREFETCHES SAME FILL-ORIGIN LEVEL: 0 DIFFERENT FILL-ORIGIN LEVEL: 0
L1I AVERAGE MISS LATENCY: -nan cycles
L1I RQ	ACCESS:   78731963	FORWARD:          0	MERGED:   28437957	TO_CACHE:   50294006

BTB TOTAL     ACCESS:   32765953  HIT:   32765924  MISS:         29  HIT %:    99.9999  MISS %: 8.85065e-05   MPKI: 0.000145
BTB BRANCH_DIRECT_JUMP	ACCESS:    4318196  HIT:    4318187  MISS:          9
BTB BRANCH_INDIRECT	ACCESS:          0  HIT:          0  MISS:          0
BTB BRANCH_CONDITIONAL	ACCESS:   24127035  HIT:   24127021  MISS:         14
BTB BRANCH_DIRECT_CALL	ACCESS:    2160361  HIT:    2160358  MISS:          3
BTB BRANCH_INDIRECT_CALL	ACCESS:          0  HIT:          0  MISS:          0
BTB BRANCH_RETURN	ACCESS:    2160361  HIT:    2160358  MISS:          3
BTB BRANCH_OTHER ACCESS:          0  HIT:          0  MISS:          0

L2C TOTAL     ACCESS:   17641336  HIT:   13952794  MISS:    3688542  HIT %:    79.0915  MISS %:    20.9085   MPKI: 18.4427
L2C LOAD      ACCESS:    1168904  HIT:    1068250  MISS:     100654  HIT %:     91.389  MISS %:    8.61097   MPKI: 0.50327
L2C DATA LOAD MPKI: 0.50327
L2C INSTRUCTION LOAD MPKI: 0
L2C RFO       ACCESS:       1605  HIT:          7  MISS:       1598  HIT %:   0.436137  MISS %:    99.5639   MPKI: 0.00799
L2C PREFETCH  ACCESS:   15053351  HIT:   11480171  MISS:    3573180  HIT %:    76.2632  MISS %:    23.7368   MPKI: 17.8659
L2C DATA PREFETCH MPKI: 17.8659
L2C INSTRUCTION PREFETCH MPKI: 0
L2C WRITEBACK ACCESS:      12073  HIT:      12039  MISS:         34  HIT %:    99.7184  MISS %:    0.28162   MPKI: 0.00017
L2C LOAD TRANSLATION ACCESS:      61101  HIT:      57172  MISS:       3929  HIT %:    93.5697  MISS %:    6.43034   MPKI: 0.019645
L2C TRANSLATION FROM L1D PREFETCHER ACCESS:    1344302  HIT:    1335155  MISS:       9147  HIT %:    99.3196  MISS %:   0.680427   MPKI: 0.045735
L2C PREFETCH  REQUESTED:          0  ISSUED:          0  USEFUL:     188011  USELESS:    3394481
L2C USEFUL LOAD PREFETCHES:     188011 PREFETCH ISSUED TO LOWER LEVEL:    3580372  ACCURACY: 5.25116
L2C TIMELY PREFETCHES:     188011 LATE PREFETCHES: 7192 DROPPED PREFETCHES: 0
L2C PREFETCHES SAME FILL-ORIGIN LEVEL: 2549853 DIFFERENT FILL-ORIGIN LEVEL: 0
L2C AVERAGE MISS LATENCY: 110.576 cycles
L2C RQ	ACCESS:    2575912	FORWARD:          0	MERGED:          0	TO_CACHE:    2575912
L2C WQ	ACCESS:      12073	FORWARD:          0	MERGED:          0	TO_CACHE:      12073
L2C PQ	ACCESS:   15743696	FORWARD:          0	MERGED:       1377	TO_CACHE:   15742319

L2C Instructions Evicting Data 0
L2C Translations Evicting Data 13051
L2C Data Evicting Data 3662397
L2C Instructions Evicting Instructions 0
L2C Translations Evicting Instructions 0
L2C Data Evicting Instructions 0
L2C Instructions Evicting Translations 0
L2C Translations Evicting Translations 25
L2C Data Evicting Translations 13035
L2C Dense regions hint from L2: 0
PSCL5 TOTAL     ACCESS:    1394274  HIT:    1394274  MISS:          0  HIT %:        100  MISS %:          0   MPKI: 0
PSCL5 LOAD TRANSLATION ACCESS:      60822  HIT:      60822  MISS:          0  HIT %:        100  MISS %:          0   MPKI: 0
PSCL5 TRANSLATION FROM L1D PREFETCHER ACCESS:    1333452  HIT:    1333452  MISS:          0  HIT %:        100  MISS %:          0   MPKI: 0
PSCL5 PREFETCH  REQUESTED:          0  ISSUED:          0  USEFUL:          0  USELESS:          0
PSCL5 USEFUL LOAD PREFETCHES:          0 PREFETCH ISSUED TO LOWER LEVEL:          0  ACCURACY: -nan
PSCL5 TIMELY PREFETCHES:          0 LATE PREFETCHES: 0 DROPPED PREFETCHES: 0
PSCL5 PREFETCHES SAME FILL-ORIGIN LEVEL: 0 DIFFERENT FILL-ORIGIN LEVEL: 0

PSCL4 TOTAL     ACCESS:    1394274  HIT:    1394274  MISS:          0  HIT %:        100  MISS %:          0   MPKI: 0
PSCL4 LOAD TRANSLATION ACCESS:      60822  HIT:      60822  MISS:          0  HIT %:        100  MISS %:          0   MPKI: 0
PSCL4 TRANSLATION FROM L1D PREFETCHER ACCESS:    1333452  HIT:    1333452  MISS:          0  HIT %:        100  MISS %:          0   MPKI: 0
PSCL4 PREFETCH  REQUESTED:          0  ISSUED:          0  USEFUL:          0  USELESS:          0
PSCL4 USEFUL LOAD PREFETCHES:          0 PREFETCH ISSUED TO LOWER LEVEL:          0  ACCURACY: -nan
PSCL4 TIMELY PREFETCHES:          0 LATE PREFETCHES: 0 DROPPED PREFETCHES: 0
PSCL4 PREFETCHES SAME FILL-ORIGIN LEVEL: 0 DIFFERENT FILL-ORIGIN LEVEL: 0

PSCL3 TOTAL     ACCESS:    1394274  HIT:    1394273  MISS:          1  HIT %:    99.9999  MISS %: 7.17219e-05   MPKI: 5e-06
PSCL3 LOAD TRANSLATION ACCESS:      60822  HIT:      60821  MISS:          1  HIT %:    99.9984  MISS %: 0.00164414   MPKI: 5e-06
PSCL3 TRANSLATION FROM L1D PREFETCHER ACCESS:    1333452  HIT:    1333452  MISS:          0  HIT %:        100  MISS %:          0   MPKI: 0
PSCL3 PREFETCH  REQUESTED:          0  ISSUED:          0  USEFUL:          0  USELESS:          0
PSCL3 USEFUL LOAD PREFETCHES:          0 PREFETCH ISSUED TO LOWER LEVEL:          0  ACCURACY: -nan
PSCL3 TIMELY PREFETCHES:          0 LATE PREFETCHES: 0 DROPPED PREFETCHES: 0
PSCL3 PREFETCHES SAME FILL-ORIGIN LEVEL: 0 DIFFERENT FILL-ORIGIN LEVEL: 0

PSCL2 TOTAL     ACCESS:    1371659  HIT:    1370974  MISS:        685  HIT %:    99.9501  MISS %:  0.0499395   MPKI: 0.003425
PSCL2 LOAD TRANSLATION ACCESS:      60823  HIT:      60138  MISS:        685  HIT %:    98.8738  MISS %:    1.12622   MPKI: 0.003425
PSCL2 TRANSLATION FROM L1D PREFETCHER ACCESS:    1310836  HIT:    1310836  MISS:          0  HIT %:        100  MISS %:          0   MPKI: 0
PSCL2 PREFETCH  REQUESTED:          0  ISSUED:          0  USEFUL:          0  USELESS:          0
PSCL2 USEFUL LOAD PREFETCHES:          0 PREFETCH ISSUED TO LOWER LEVEL:          0  ACCURACY: -nan
PSCL2 TIMELY PREFETCHES:          0 LATE PREFETCHES: 0 DROPPED PREFETCHES: 0
PSCL2 PREFETCHES SAME FILL-ORIGIN LEVEL: 0 DIFFERENT FILL-ORIGIN LEVEL: 0

LLC TOTAL     ACCESS:    3693439  HIT:      39124  MISS:    3654315  HIT %:    1.05928  MISS %:    98.9407   MPKI: 18.2716
LLC LOAD      ACCESS:      93462  HIT:       5136  MISS:      88326  HIT %:    5.49528  MISS %:    94.5047   MPKI: 0.44163
LLC RFO       ACCESS:       1598  HIT:          7  MISS:       1591  HIT %:   0.438048  MISS %:     99.562   MPKI: 0.007955
LLC PREFETCH  ACCESS:    3580372  HIT:      27697  MISS:    3552675  HIT %:   0.773579  MISS %:    99.2264   MPKI: 17.7634
LLC WRITEBACK ACCESS:       4931  HIT:       4866  MISS:         65  HIT %:    98.6818  MISS %:    1.31819   MPKI: 0.000325
LLC LOAD TRANSLATION ACCESS:       3929  HIT:        550  MISS:       3379  HIT %:    13.9985  MISS %:    86.0015   MPKI: 0.016895
LLC TRANSLATION FROM L1D PREFETCHER ACCESS:       9147  HIT:        868  MISS:       8279  HIT %:    9.48945  MISS %:    90.5105   MPKI: 0.041395
LLC PREFETCH  REQUESTED:          0  ISSUED:          0  USEFUL:        762  USELESS:    3559687
LLC USEFUL LOAD PREFETCHES:        762 PREFETCH ISSUED TO LOWER LEVEL:    3552675  ACCURACY: 0.0214486
LLC TIMELY PREFETCHES:        762 LATE PREFETCHES: 0 DROPPED PREFETCHES: 0
LLC PREFETCHES SAME FILL-ORIGIN LEVEL: 0 DIFFERENT FILL-ORIGIN LEVEL: 0
LLC AVERAGE MISS LATENCY: 81.4422 cycles
LLC RQ	ACCESS:     108136	FORWARD:          0	MERGED:          0	TO_CACHE:     108136
LLC WQ	ACCESS:       4931	FORWARD:          0	MERGED:          0	TO_CACHE:       4931
LLC PQ	ACCESS:    3580372	FORWARD:          0	MERGED:          0	TO_CACHE:    3580372

LLC Dense regions hint to LLC: 0

RAW hits: 1007
Loads Generated: 55596102
Loads sent to L1D: 55595095
Stores Generated: 19411013
Stores sent to L1D: 19411013
Major fault: 0 Minor fault: 76297
Allocated PAGES: 76297

DRAM Statistics
 CHANNEL 0
 RQ ROW_BUFFER_HIT:    3424829  ROW_BUFFER_MISS:     229421
 DBUS_CONGESTED:        139
 WQ ROW_BUFFER_HIT:       2124  ROW_BUFFER_MISS:       2800  FULL:          0

 AVG_CONGESTED_CYCLE: 4
 All warmup complete: 2
Channel 0 Bank busy for read cycles: 0
Channel 0 Bank busy for write cycles: 0
Channel 0
Rank 0
0banks busy for read cycles: 344263903
0banks busy for write cycles: 3686
1banks busy for read cycles: 67616450
1banks busy for write cycles: 620812
2banks busy for read cycles: 30972892
2banks busy for write cycles: 129046
3banks busy for read cycles: 8614810
3banks busy for write cycles: 31509
4banks busy for read cycles: 3820422
4banks busy for write cycles: 8174
5banks busy for read cycles: 1216934
5banks busy for write cycles: 2480
6banks busy for read cycles: 603054
6banks busy for write cycles: 133
7banks busy for read cycles: 562726
7banks busy for write cycles: 0
8banks busy for read cycles: 2665735
8banks busy for write cycles: 0

CPU 0 Branch Prediction Accuracy: 99.9701% MPKI: 0.063845 Average ROB Occupancy at Mispredict: 294.962
Branch types
NOT_BRANCH: 148719227 74.3596%
BRANCH_DIRECT_JUMP: 4318196 2.1591%
BRANCH_INDIRECT: 0 0%
BRANCH_CONDITIONAL: 42641844 21.3209%
BRANCH_DIRECT_CALL: 2160361 1.08018%
BRANCH_INDIRECT_CALL: 0 0%
BRANCH_RETURN: 2160361 1.08018%
BRANCH_OTHER: 0 0%

DRAM PAGES: 1048576
Allocated PAGES: 76297
