526208 bits of metadata so far, 405638 left out of 526336 total budget
table size is 13521 bits, 2253 entries for 5 bit, 1931 entries for 6 bit
526208 total bits (64.23KB)

*** ChampSim Multicore Out-of-Order Simulator ***

Warmup Instructions: 50000000
Simulation Instructions: 200000000
Number of CPUs: 1
LLC sets: 2048
LLC ways: 16
Off-chip DRAM Size: 4096 MB Channels: 1 Width: 64-bit Data Rate: 6400 MT/s
argv[0]: ./ChampSim/Berti/bin/multiperspective_perceptron-no-vberti-no-no-no-no-no-lru-lru-lru-srrip-drrip-lru-lru-lru-1core-no
argv[1]: -warmup_instructions
argv[2]: 50000000
argv[3]: -simulation_instructions
argv[4]: 200000000
argv[5]: -traces
argv[6]: traces/spec2k17_ten/602.gcc_s-2226B.champsimtrace.xz
CPU 0 runs traces/spec2k17_ten/602.gcc_s-2226B.champsimtrace.xz
.xz
CPU 0 Multiperspective perceptron branch predictor
BTB has LRU replacement policy
ITLB has LRU replacement policy
DTLB has LRU replacement policy
STLB has LRU replacement policy
L1I has LRU replacement policy
History Sets: 8
History Ways: 16
BERTI Size: 16
BERTI Stride Size: 16
L1D has LRU replacement policy
Initialize SRRIP state for L2C
Initialize DRRIP state for LLC
Heartbeat CPU 0 instructions: 10000002 cycles: 3740901 heartbeat IPC: 2.67315 cumulative IPC: 2.67315 (Simulation time: 0 hr 3 min 12 sec) 
Heartbeat CPU 0 instructions: 20000001 cycles: 7483280 heartbeat IPC: 2.6721 cumulative IPC: 2.67263 (Simulation time: 0 hr 5 min 25 sec) 
Heartbeat CPU 0 instructions: 30000001 cycles: 11220200 heartbeat IPC: 2.676 cumulative IPC: 2.67375 (Simulation time: 0 hr 15 min 1 sec) 
Heartbeat CPU 0 instructions: 40000002 cycles: 14954909 heartbeat IPC: 2.67759 cumulative IPC: 2.67471 (Simulation time: 0 hr 22 min 15 sec) 
Heartbeat CPU 0 instructions: 50000000 cycles: 18688959 heartbeat IPC: 2.67806 cumulative IPC: 2.67538 (Simulation time: 0 hr 29 min 59 sec) 

Warmup complete CPU 0 instructions: 50000004 cycles: 18688960 (Simulation time: 0 hr 29 min 59 sec) 

Heartbeat CPU 0 instructions: 60000001 cycles: 43615541 heartbeat IPC: 0.401178 cumulative IPC: 0.401178 (Simulation time: 0 hr 39 min 2 sec) 
Heartbeat CPU 0 instructions: 70000000 cycles: 68299780 heartbeat IPC: 0.405117 cumulative IPC: 0.403138 (Simulation time: 0 hr 46 min 55 sec) 
Heartbeat CPU 0 instructions: 80000000 cycles: 93062163 heartbeat IPC: 0.403838 cumulative IPC: 0.403371 (Simulation time: 0 hr 55 min 4 sec) 
Heartbeat CPU 0 instructions: 90000001 cycles: 117865949 heartbeat IPC: 0.403164 cumulative IPC: 0.403319 (Simulation time: 1 hr 3 min 32 sec) 
Heartbeat CPU 0 instructions: 100000001 cycles: 142666397 heartbeat IPC: 0.403219 cumulative IPC: 0.403299 (Simulation time: 1 hr 12 min 27 sec) 
Heartbeat CPU 0 instructions: 110000000 cycles: 167407851 heartbeat IPC: 0.40418 cumulative IPC: 0.403446 (Simulation time: 1 hr 21 min 56 sec) 
Heartbeat CPU 0 instructions: 120000000 cycles: 192282546 heartbeat IPC: 0.402015 cumulative IPC: 0.403241 (Simulation time: 1 hr 30 min 6 sec) 
Heartbeat CPU 0 instructions: 130000001 cycles: 217168305 heartbeat IPC: 0.401836 cumulative IPC: 0.403065 (Simulation time: 1 hr 36 min 15 sec) 
Heartbeat CPU 0 instructions: 140000000 cycles: 241852650 heartbeat IPC: 0.405115 cumulative IPC: 0.403291 (Simulation time: 1 hr 41 min 22 sec) 
Heartbeat CPU 0 instructions: 150000001 cycles: 266516041 heartbeat IPC: 0.405459 cumulative IPC: 0.403507 (Simulation time: 1 hr 45 min 16 sec) 
Heartbeat CPU 0 instructions: 160000002 cycles: 291346638 heartbeat IPC: 0.402729 cumulative IPC: 0.403436 (Simulation time: 1 hr 49 min 14 sec) 
Heartbeat CPU 0 instructions: 170000001 cycles: 316269946 heartbeat IPC: 0.401231 cumulative IPC: 0.403252 (Simulation time: 1 hr 52 min 5 sec) 
Heartbeat CPU 0 instructions: 180000000 cycles: 340870683 heartbeat IPC: 0.406492 cumulative IPC: 0.403499 (Simulation time: 1 hr 54 min 12 sec) 
Heartbeat CPU 0 instructions: 190000002 cycles: 365747609 heartbeat IPC: 0.401979 cumulative IPC: 0.40339 (Simulation time: 1 hr 55 min 57 sec) 
Heartbeat CPU 0 instructions: 200000000 cycles: 390491496 heartbeat IPC: 0.40414 cumulative IPC: 0.40344 (Simulation time: 1 hr 57 min 10 sec) 
Heartbeat CPU 0 instructions: 210000003 cycles: 415317996 heartbeat IPC: 0.402796 cumulative IPC: 0.4034 (Simulation time: 1 hr 58 min 22 sec) 
Heartbeat CPU 0 instructions: 220000000 cycles: 439989949 heartbeat IPC: 0.405318 cumulative IPC: 0.403512 (Simulation time: 1 hr 59 min 31 sec) 
Heartbeat CPU 0 instructions: 230000001 cycles: 464763322 heartbeat IPC: 0.403659 cumulative IPC: 0.40352 (Simulation time: 2 hr 0 min 39 sec) 
Heartbeat CPU 0 instructions: 240000001 cycles: 489598428 heartbeat IPC: 0.402656 cumulative IPC: 0.403475 (Simulation time: 2 hr 1 min 46 sec) 
Heartbeat CPU 0 instructions: 250000000 cycles: 514417317 heartbeat IPC: 0.402919 cumulative IPC: 0.403447 (Simulation time: 2 hr 2 min 52 sec) 
Finished CPU 0 instructions: 200000000 cycles: 495728358 cumulative IPC: 0.403447 (Simulation time: 2 hr 2 min 52 sec) 

ChampSim completed all CPUs

Region of Interest Statistics

CPU 0 cumulative IPC: 0.403447 instructions: 200000000 cycles: 495728358
ITLB TOTAL     ACCESS:   37569055  HIT:   37569055  MISS:          0  HIT %:        100  MISS %:          0   MPKI: 0
ITLB LOAD TRANSLATION ACCESS:   37569055  HIT:   37569055  MISS:          0  HIT %:        100  MISS %:          0   MPKI: 0
ITLB PREFETCH  REQUESTED:          0  ISSUED:          0  USEFUL:          0  USELESS:          0
ITLB USEFUL LOAD PREFETCHES:          0 PREFETCH ISSUED TO LOWER LEVEL:          0  ACCURACY: -nan
ITLB TIMELY PREFETCHES:          0 LATE PREFETCHES: 0 DROPPED PREFETCHES: 0
ITLB PREFETCHES SAME FILL-ORIGIN LEVEL: 0 DIFFERENT FILL-ORIGIN LEVEL: 0
ITLB AVERAGE MISS LATENCY: -nan cycles
ITLB RQ	ACCESS:   38753567	FORWARD:          0	MERGED:    1184512	TO_CACHE:   37569055

DTLB TOTAL     ACCESS:   30498202  HIT:   30224713  MISS:     273489  HIT %:    99.1033  MISS %:   0.896738   MPKI: 1.36745
DTLB LOAD TRANSLATION ACCESS:   30498202  HIT:   30224713  MISS:     273489  HIT %:    99.1033  MISS %:   0.896738   MPKI: 1.36745
DTLB PREFETCH  REQUESTED:          0  ISSUED:          0  USEFUL:          0  USELESS:          0
DTLB USEFUL LOAD PREFETCHES:          0 PREFETCH ISSUED TO LOWER LEVEL:          0  ACCURACY: -nan
DTLB TIMELY PREFETCHES:          0 LATE PREFETCHES: 0 DROPPED PREFETCHES: 0
DTLB PREFETCHES SAME FILL-ORIGIN LEVEL: 0 DIFFERENT FILL-ORIGIN LEVEL: 0
DTLB AVERAGE MISS LATENCY: 27.9786 cycles
DTLB RQ	ACCESS:   35983838	FORWARD:          0	MERGED:    5485501	TO_CACHE:   30498337

STLB TOTAL     ACCESS:   27307960  HIT:   27044000  MISS:     263960  HIT %:    99.0334  MISS %:   0.966605   MPKI: 1.3198
STLB LOAD TRANSLATION ACCESS:     273489  HIT:     233323  MISS:      40166  HIT %:    85.3135  MISS %:    14.6865   MPKI: 0.20083
STLB TRANSLATION FROM L1D PREFETCHER ACCESS:   27034471  HIT:   26810677  MISS:     223794  HIT %:    99.1722  MISS %:    0.82781   MPKI: 1.11897
STLB PREFETCH  REQUESTED:          0  ISSUED:          0  USEFUL:     223639  USELESS:        155
STLB USEFUL LOAD PREFETCHES:     223639 PREFETCH ISSUED TO LOWER LEVEL:          0  ACCURACY: inf
STLB TIMELY PREFETCHES:     223639 LATE PREFETCHES: 171 DROPPED PREFETCHES: 2444418
STLB PREFETCHES SAME FILL-ORIGIN LEVEL: 0 DIFFERENT FILL-ORIGIN LEVEL: 0
STLB AVERAGE MISS LATENCY: 66.8866 cycles
STLB RQ	ACCESS:  131290281	FORWARD:          0	MERGED:  101414639	TO_CACHE:   29875642

STLB Hit, L1D data hit: 0
STLB Hit, L2C data hit: 0
STLB Hit, LLC data hit: 0
STLB Hit, LLC data miss: 0
STLB STLB hints to L2: 0
L1D TOTAL     ACCESS:  127187349  HIT:  112713974  MISS:   14473375  HIT %:    88.6204  MISS %:    11.3796   MPKI: 72.3669
L1D LOAD      ACCESS:   32281796  HIT:   29314402  MISS:    2967394  HIT %:    90.8078  MISS %:    9.19216   MPKI: 14.837
L1D RFO       ACCESS:    2659783  HIT:    2654302  MISS:       5481  HIT %:    99.7939  MISS %:   0.206069   MPKI: 0.027405
L1D PREFETCH  ACCESS:   92245770  HIT:   80745270  MISS:   11500500  HIT %:    87.5328  MISS %:    12.4672   MPKI: 57.5025
L1D PREFETCH  REQUESTED:  316268159  ISSUED:  312130184  USEFUL:   11037265  USELESS:     463223
L1D USEFUL LOAD PREFETCHES:   11037265 PREFETCH ISSUED TO LOWER LEVEL:   40763553  ACCURACY: 27.0763
L1D TIMELY PREFETCHES:   11037265 LATE PREFETCHES: 188818 DROPPED PREFETCHES: 2592343
L1D PREFETCHES SAME FILL-ORIGIN LEVEL: 11691563 DIFFERENT FILL-ORIGIN LEVEL: 29071990
L1D AVERAGE MISS LATENCY: 65.5031 cycles
L1D RQ	ACCESS:   71767375	FORWARD:          0	MERGED:   38435534	TO_CACHE:   33324026
L1D WQ	ACCESS:    2952864	FORWARD:       7815	MERGED:     293052	TO_CACHE:    2659812
L1D PQ	ACCESS:  181113392	FORWARD:          0	MERGED:   50096600	TO_CACHE:  131016792

L1D UNIQUE REGIONS ACCESSED: 0
L1D REGIONS CONFLICTS: 0
L1D Cross Page Prefetch Requests: 33129284
L1D Same Page Prefetch Requests: 183906153
L1D ROI Sum of L1D PQ occupancy: 2401920084
L1D PREFETCHES PUSHED FROM L2C: 0
L1I TOTAL     ACCESS:   38753563  HIT:   38753538  MISS:         25  HIT %:    99.9999  MISS %: 6.45102e-05   MPKI: 0.000125
L1I LOAD      ACCESS:   38753563  HIT:   38753538  MISS:         25  HIT %:    99.9999  MISS %: 6.45102e-05   MPKI: 0.000125
L1I PREFETCH  REQUESTED:          0  ISSUED:          0  USEFUL:          0  USELESS:          0
L1I USEFUL LOAD PREFETCHES:          0 PREFETCH ISSUED TO LOWER LEVEL:          0  ACCURACY: -nan
L1I TIMELY PREFETCHES:          0 LATE PREFETCHES: 0 DROPPED PREFETCHES: 0
L1I PREFETCHES SAME FILL-ORIGIN LEVEL: 0 DIFFERENT FILL-ORIGIN LEVEL: 0
L1I AVERAGE MISS LATENCY: 210 cycles
L1I RQ	ACCESS:   58000088	FORWARD:          0	MERGED:   19246521	TO_CACHE:   38753567

BTB TOTAL     ACCESS:   47939709  HIT:   47938647  MISS:       1062  HIT %:    99.9978  MISS %: 0.00221528   MPKI: 0.00531
BTB BRANCH_DIRECT_JUMP	ACCESS:     685292  HIT:     685256  MISS:         36
BTB BRANCH_INDIRECT	ACCESS:          0  HIT:          0  MISS:          0
BTB BRANCH_CONDITIONAL	ACCESS:   46577615  HIT:   46577537  MISS:         78
BTB BRANCH_DIRECT_CALL	ACCESS:     338401  HIT:     338385  MISS:         16
BTB BRANCH_INDIRECT_CALL	ACCESS:          0  HIT:          0  MISS:          0
BTB BRANCH_RETURN	ACCESS:     338401  HIT:     337469  MISS:        932
BTB BRANCH_OTHER ACCESS:          0  HIT:          0  MISS:          0

L2C TOTAL     ACCESS:   40593962  HIT:   25811840  MISS:   14782122  HIT %:    63.5854  MISS %:    36.4146   MPKI: 73.9106
L2C LOAD      ACCESS:    2778600  HIT:    2449259  MISS:     329341  HIT %:    88.1472  MISS %:    11.8528   MPKI: 1.64671
L2C DATA LOAD MPKI: 1.64658
L2C INSTRUCTION LOAD MPKI: 0.000125
L2C RFO       ACCESS:       5481  HIT:       1021  MISS:       4460  HIT %:     18.628  MISS %:     81.372   MPKI: 0.0223
L2C PREFETCH  ACCESS:   35046962  HIT:   20675426  MISS:   14371536  HIT %:    58.9935  MISS %:    41.0065   MPKI: 71.8577
L2C DATA PREFETCH MPKI: 71.8577
L2C INSTRUCTION PREFETCH MPKI: 0
L2C WRITEBACK ACCESS:      23194  HIT:      22353  MISS:        841  HIT %:    96.3741  MISS %:    3.62594   MPKI: 0.004205
L2C LOAD TRANSLATION ACCESS:      45601  HIT:      15495  MISS:      30106  HIT %:    33.9795  MISS %:    66.0205   MPKI: 0.15053
L2C TRANSLATION FROM L1D PREFETCHER ACCESS:    2694124  HIT:    2648286  MISS:      45838  HIT %:    98.2986  MISS %:    1.70141   MPKI: 0.22919
L2C PREFETCH  REQUESTED:          0  ISSUED:          0  USEFUL:    2479588  USELESS:   11939212
L2C USEFUL LOAD PREFETCHES:    2479588 PREFETCH ISSUED TO LOWER LEVEL:   14540280  ACCURACY: 17.0532
L2C TIMELY PREFETCHES:    2479588 LATE PREFETCHES: 168742 DROPPED PREFETCHES: 0
L2C PREFETCHES SAME FILL-ORIGIN LEVEL: 8983464 DIFFERENT FILL-ORIGIN LEVEL: 0
L2C AVERAGE MISS LATENCY: 132.366 cycles
L2C RQ	ACCESS:    5523807	FORWARD:          0	MERGED:          0	TO_CACHE:    5523806
L2C WQ	ACCESS:      23194	FORWARD:          1	MERGED:          0	TO_CACHE:      23194
L2C PQ	ACCESS:   40739515	FORWARD:          0	MERGED:      12507	TO_CACHE:   40727008

L2C Instructions Evicting Data 24
L2C Translations Evicting Data 75524
L2C Data Evicting Data 14629742
L2C Instructions Evicting Instructions 0
L2C Translations Evicting Instructions 0
L2C Data Evicting Instructions 25
L2C Instructions Evicting Translations 1
L2C Translations Evicting Translations 420
L2C Data Evicting Translations 75545
L2C Dense regions hint from L2: 0
PSCL5 TOTAL     ACCESS:    2708409  HIT:    2708409  MISS:          0  HIT %:        100  MISS %:          0   MPKI: 0
PSCL5 LOAD TRANSLATION ACCESS:      40025  HIT:      40025  MISS:          0  HIT %:        100  MISS %:          0   MPKI: 0
PSCL5 TRANSLATION FROM L1D PREFETCHER ACCESS:    2668384  HIT:    2668384  MISS:          0  HIT %:        100  MISS %:          0   MPKI: 0
PSCL5 PREFETCH  REQUESTED:          0  ISSUED:          0  USEFUL:          0  USELESS:          0
PSCL5 USEFUL LOAD PREFETCHES:          0 PREFETCH ISSUED TO LOWER LEVEL:          0  ACCURACY: -nan
PSCL5 TIMELY PREFETCHES:          0 LATE PREFETCHES: 0 DROPPED PREFETCHES: 0
PSCL5 PREFETCHES SAME FILL-ORIGIN LEVEL: 0 DIFFERENT FILL-ORIGIN LEVEL: 0

PSCL4 TOTAL     ACCESS:    2708409  HIT:    2708409  MISS:          0  HIT %:        100  MISS %:          0   MPKI: 0
PSCL4 LOAD TRANSLATION ACCESS:      40025  HIT:      40025  MISS:          0  HIT %:        100  MISS %:          0   MPKI: 0
PSCL4 TRANSLATION FROM L1D PREFETCHER ACCESS:    2668384  HIT:    2668384  MISS:          0  HIT %:        100  MISS %:          0   MPKI: 0
PSCL4 PREFETCH  REQUESTED:          0  ISSUED:          0  USEFUL:          0  USELESS:          0
PSCL4 USEFUL LOAD PREFETCHES:          0 PREFETCH ISSUED TO LOWER LEVEL:          0  ACCURACY: -nan
PSCL4 TIMELY PREFETCHES:          0 LATE PREFETCHES: 0 DROPPED PREFETCHES: 0
PSCL4 PREFETCHES SAME FILL-ORIGIN LEVEL: 0 DIFFERENT FILL-ORIGIN LEVEL: 0

PSCL3 TOTAL     ACCESS:    2708403  HIT:    2708376  MISS:         27  HIT %:     99.999  MISS %: 0.000996897   MPKI: 0.000135
PSCL3 LOAD TRANSLATION ACCESS:      40022  HIT:      39995  MISS:         27  HIT %:    99.9325  MISS %:  0.0674629   MPKI: 0.000135
PSCL3 TRANSLATION FROM L1D PREFETCHER ACCESS:    2668381  HIT:    2668381  MISS:          0  HIT %:        100  MISS %:          0   MPKI: 0
PSCL3 PREFETCH  REQUESTED:          0  ISSUED:          0  USEFUL:          0  USELESS:          0
PSCL3 USEFUL LOAD PREFETCHES:          0 PREFETCH ISSUED TO LOWER LEVEL:          0  ACCURACY: -nan
PSCL3 TIMELY PREFETCHES:          0 LATE PREFETCHES: 0 DROPPED PREFETCHES: 0
PSCL3 PREFETCHES SAME FILL-ORIGIN LEVEL: 0 DIFFERENT FILL-ORIGIN LEVEL: 0

PSCL2 TOTAL     ACCESS:    2681239  HIT:    2675010  MISS:       6229  HIT %:    99.7677  MISS %:   0.232318   MPKI: 0.031145
PSCL2 LOAD TRANSLATION ACCESS:      40695  HIT:      34466  MISS:       6229  HIT %:    84.6935  MISS %:    15.3065   MPKI: 0.031145
PSCL2 TRANSLATION FROM L1D PREFETCHER ACCESS:    2640544  HIT:    2640544  MISS:          0  HIT %:        100  MISS %:          0   MPKI: 0
PSCL2 PREFETCH  REQUESTED:          0  ISSUED:          0  USEFUL:          0  USELESS:          0
PSCL2 USEFUL LOAD PREFETCHES:          0 PREFETCH ISSUED TO LOWER LEVEL:          0  ACCURACY: -nan
PSCL2 TIMELY PREFETCHES:          0 LATE PREFETCHES: 0 DROPPED PREFETCHES: 0
PSCL2 PREFETCHES SAME FILL-ORIGIN LEVEL: 0 DIFFERENT FILL-ORIGIN LEVEL: 0

LLC TOTAL     ACCESS:   14803912  HIT:     105722  MISS:   14698190  HIT %:   0.714149  MISS %:    99.2859   MPKI: 73.4909
LLC LOAD      ACCESS:     160599  HIT:       6183  MISS:     154416  HIT %:    3.84996  MISS %:      96.15   MPKI: 0.77208
LLC RFO       ACCESS:       4460  HIT:         33  MISS:       4427  HIT %:    0.73991  MISS %:    99.2601   MPKI: 0.022135
LLC PREFETCH  ACCESS:   14540278  HIT:      71871  MISS:   14468407  HIT %:   0.494289  MISS %:    99.5057   MPKI: 72.342
LLC WRITEBACK ACCESS:      22631  HIT:      22174  MISS:        457  HIT %:    97.9806  MISS %:    2.01935   MPKI: 0.002285
LLC LOAD TRANSLATION ACCESS:      30106  HIT:       3062  MISS:      27044  HIT %:    10.1707  MISS %:    89.8293   MPKI: 0.13522
LLC TRANSLATION FROM L1D PREFETCHER ACCESS:      45838  HIT:       2399  MISS:      43439  HIT %:    5.23365  MISS %:    94.7664   MPKI: 0.217195
LLC PREFETCH  REQUESTED:          0  ISSUED:          0  USEFUL:       2847  USELESS:   14508525
LLC USEFUL LOAD PREFETCHES:       2847 PREFETCH ISSUED TO LOWER LEVEL:   14468408  ACCURACY: 0.0196774
LLC TIMELY PREFETCHES:       2847 LATE PREFETCHES: 0 DROPPED PREFETCHES: 0
LLC PREFETCHES SAME FILL-ORIGIN LEVEL: 0 DIFFERENT FILL-ORIGIN LEVEL: 0
LLC AVERAGE MISS LATENCY: 103.935 cycles
LLC RQ	ACCESS:     241003	FORWARD:          0	MERGED:          0	TO_CACHE:     241003
LLC WQ	ACCESS:      22631	FORWARD:          0	MERGED:          0	TO_CACHE:      22631
LLC PQ	ACCESS:   14540280	FORWARD:          0	MERGED:          0	TO_CACHE:   14540280

LLC Dense regions hint to LLC: 0

RAW hits: 20189
Loads Generated: 71787567
Loads sent to L1D: 71767375
Stores Generated: 2952864
Stores sent to L1D: 2952864
Major fault: 0 Minor fault: 49083
Allocated PAGES: 49083

DRAM Statistics
 CHANNEL 0
 RQ ROW_BUFFER_HIT:   11530064  ROW_BUFFER_MISS:    3167669
 DBUS_CONGESTED:      14194
 WQ ROW_BUFFER_HIT:       3199  ROW_BUFFER_MISS:      19381  FULL:          0

 AVG_CONGESTED_CYCLE: 4
 All warmup complete: 2
Channel 0 Bank busy for read cycles: 0
Channel 0 Bank busy for write cycles: 0
Channel 0
Rank 0
0banks busy for read cycles: 72152182
0banks busy for write cycles: 14696
1banks busy for read cycles: 122440618
1banks busy for write cycles: 4793570
2banks busy for read cycles: 127321485
2banks busy for write cycles: 1530233
3banks busy for read cycles: 76338669
3banks busy for write cycles: 473700
4banks busy for read cycles: 42273766
4banks busy for write cycles: 136706
5banks busy for read cycles: 25523420
5banks busy for write cycles: 34789
6banks busy for read cycles: 13366913
6banks busy for write cycles: 4409
7banks busy for read cycles: 5826156
7banks busy for write cycles: 789
8banks busy for read cycles: 3496258
8banks busy for write cycles: 0

CPU 0 Branch Prediction Accuracy: 99.7022% MPKI: 1.04107 Average ROB Occupancy at Mispredict: 250.029
Branch types
NOT_BRANCH: 128713628 64.3568%
BRANCH_DIRECT_JUMP: 685292 0.342646%
BRANCH_INDIRECT: 0 0%
BRANCH_CONDITIONAL: 69924204 34.9621%
BRANCH_DIRECT_CALL: 338401 0.169201%
BRANCH_INDIRECT_CALL: 0 0%
BRANCH_RETURN: 338401 0.169201%
BRANCH_OTHER: 0 0%

DRAM PAGES: 1048576
Allocated PAGES: 49083
