 (TOTAL 67349)
 
*** ChampSim Multicore Out-of-Order Simulator ***

Warmup Instructions: 50000000
Simulation Instructions: 200000000
Number of CPUs: 1
LLC sets: 2048
LLC ways: 16
Off-chip DRAM Size: 4096 MB Channels: 1 Width: 64-bit Data Rate: 6400 MT/s
argv[0]: ./ChampSim/Berti/bin/tagescl8kb-no-vberti-no-no-no-no-no-lru-lru-lru-srrip-drrip-lru-lru-lru-1core-no
argv[1]: -warmup_instructions
argv[2]: 50000000
argv[3]: -simulation_instructions
argv[4]: 200000000
argv[5]: -traces
argv[6]: traces/spec2k17_ten/641.leela_s-1052B.champsimtrace.xz
CPU 0 runs traces/spec2k17_ten/641.leela_s-1052B.champsimtrace.xz
.xz
CPU 0 Tage branch predictor
BTB has LRU replacement policy
ITLB has LRU replacement policy
DTLB has LRU replacement policy
STLB has LRU replacement policy
L1I has LRU replacement policy
History Sets: 8
History Ways: 16
BERTI Size: 16
BERTI Stride Size: 16
L1D has LRU replacement policy
Initialize SRRIP state for L2C
Initialize DRRIP state for LLC
Heartbeat CPU 0 instructions: 10000003 cycles: 3113558 heartbeat IPC: 3.21176 cumulative IPC: 3.21176 (Simulation time: 0 hr 3 min 37 sec) 
Heartbeat CPU 0 instructions: 20000001 cycles: 6229645 heartbeat IPC: 3.20915 cumulative IPC: 3.21046 (Simulation time: 0 hr 8 min 37 sec) 
Heartbeat CPU 0 instructions: 30000003 cycles: 9341876 heartbeat IPC: 3.21313 cumulative IPC: 3.21135 (Simulation time: 0 hr 14 min 11 sec) 
Heartbeat CPU 0 instructions: 40000002 cycles: 12455718 heartbeat IPC: 3.21147 cumulative IPC: 3.21138 (Simulation time: 0 hr 20 min 35 sec) 
Heartbeat CPU 0 instructions: 50000000 cycles: 15569857 heartbeat IPC: 3.21116 cumulative IPC: 3.21133 (Simulation time: 0 hr 25 min 7 sec) 

Warmup complete CPU 0 instructions: 50000004 cycles: 15569858 (Simulation time: 0 hr 25 min 7 sec) 

Heartbeat CPU 0 instructions: 60000000 cycles: 42712712 heartbeat IPC: 0.368421 cumulative IPC: 0.368421 (Simulation time: 0 hr 31 min 18 sec) 
Heartbeat CPU 0 instructions: 70000003 cycles: 69724464 heartbeat IPC: 0.370209 cumulative IPC: 0.369313 (Simulation time: 0 hr 38 min 38 sec) 
Heartbeat CPU 0 instructions: 80000000 cycles: 96890551 heartbeat IPC: 0.368106 cumulative IPC: 0.36891 (Simulation time: 0 hr 43 min 53 sec) 
Heartbeat CPU 0 instructions: 90000000 cycles: 124368236 heartbeat IPC: 0.363932 cumulative IPC: 0.367653 (Simulation time: 0 hr 49 min 32 sec) 
Heartbeat CPU 0 instructions: 100000003 cycles: 151676274 heartbeat IPC: 0.366193 cumulative IPC: 0.36736 (Simulation time: 0 hr 55 min 58 sec) 
Heartbeat CPU 0 instructions: 110000000 cycles: 178662812 heartbeat IPC: 0.370555 cumulative IPC: 0.367888 (Simulation time: 1 hr 1 min 43 sec) 
Heartbeat CPU 0 instructions: 120000000 cycles: 205651057 heartbeat IPC: 0.370532 cumulative IPC: 0.368264 (Simulation time: 1 hr 8 min 47 sec) 
Heartbeat CPU 0 instructions: 130000002 cycles: 232923006 heartbeat IPC: 0.366677 cumulative IPC: 0.368065 (Simulation time: 1 hr 14 min 8 sec) 
Heartbeat CPU 0 instructions: 140000001 cycles: 260291729 heartbeat IPC: 0.365381 cumulative IPC: 0.367764 (Simulation time: 1 hr 19 min 57 sec) 
Heartbeat CPU 0 instructions: 150000000 cycles: 287582487 heartbeat IPC: 0.366424 cumulative IPC: 0.36763 (Simulation time: 1 hr 25 min 26 sec) 
Heartbeat CPU 0 instructions: 160000001 cycles: 314492492 heartbeat IPC: 0.371609 cumulative IPC: 0.367988 (Simulation time: 1 hr 29 min 41 sec) 
Heartbeat CPU 0 instructions: 170000001 cycles: 341610121 heartbeat IPC: 0.368764 cumulative IPC: 0.368053 (Simulation time: 1 hr 33 min 28 sec) 
Heartbeat CPU 0 instructions: 180000003 cycles: 368554407 heartbeat IPC: 0.371136 cumulative IPC: 0.368288 (Simulation time: 1 hr 36 min 14 sec) 
Heartbeat CPU 0 instructions: 190000000 cycles: 395764087 heartbeat IPC: 0.367516 cumulative IPC: 0.368233 (Simulation time: 1 hr 39 min 40 sec) 
Heartbeat CPU 0 instructions: 200000000 cycles: 422958377 heartbeat IPC: 0.367724 cumulative IPC: 0.368199 (Simulation time: 1 hr 43 min 19 sec) 
Heartbeat CPU 0 instructions: 210000000 cycles: 449972059 heartbeat IPC: 0.370183 cumulative IPC: 0.368322 (Simulation time: 1 hr 45 min 28 sec) 
Heartbeat CPU 0 instructions: 220000000 cycles: 477069593 heartbeat IPC: 0.369037 cumulative IPC: 0.368364 (Simulation time: 1 hr 48 min 13 sec) 
Heartbeat CPU 0 instructions: 230000002 cycles: 504347457 heartbeat IPC: 0.366598 cumulative IPC: 0.368266 (Simulation time: 1 hr 50 min 25 sec) 
Heartbeat CPU 0 instructions: 240000003 cycles: 531606011 heartbeat IPC: 0.366857 cumulative IPC: 0.368191 (Simulation time: 1 hr 52 min 25 sec) 
Heartbeat CPU 0 instructions: 250000000 cycles: 558790889 heartbeat IPC: 0.367851 cumulative IPC: 0.368174 (Simulation time: 1 hr 53 min 53 sec) 
Finished CPU 0 instructions: 200000001 cycles: 543221049 cumulative IPC: 0.368174 (Simulation time: 1 hr 53 min 53 sec) 

ChampSim completed all CPUs

Region of Interest Statistics

CPU 0 cumulative IPC: 0.368174 instructions: 200000001 cycles: 543221049
ITLB TOTAL     ACCESS:   34901323  HIT:   34901323  MISS:          0  HIT %:        100  MISS %:          0   MPKI: 0
ITLB LOAD TRANSLATION ACCESS:   34901323  HIT:   34901323  MISS:          0  HIT %:        100  MISS %:          0   MPKI: 0
ITLB PREFETCH  REQUESTED:          0  ISSUED:          0  USEFUL:          0  USELESS:          0
ITLB USEFUL LOAD PREFETCHES:          0 PREFETCH ISSUED TO LOWER LEVEL:          0  ACCURACY: -nan
ITLB TIMELY PREFETCHES:          0 LATE PREFETCHES: 0 DROPPED PREFETCHES: 0
ITLB PREFETCHES SAME FILL-ORIGIN LEVEL: 0 DIFFERENT FILL-ORIGIN LEVEL: 0
ITLB AVERAGE MISS LATENCY: -nan cycles
ITLB RQ	ACCESS:   39938836	FORWARD:          0	MERGED:    5037514	TO_CACHE:   34901322

DTLB TOTAL     ACCESS:   54928587  HIT:   54840683  MISS:      87904  HIT %:      99.84  MISS %:   0.160033   MPKI: 0.43952
DTLB LOAD TRANSLATION ACCESS:   54928587  HIT:   54840683  MISS:      87904  HIT %:      99.84  MISS %:   0.160033   MPKI: 0.43952
DTLB PREFETCH  REQUESTED:          0  ISSUED:          0  USEFUL:          0  USELESS:          0
DTLB USEFUL LOAD PREFETCHES:          0 PREFETCH ISSUED TO LOWER LEVEL:          0  ACCURACY: -nan
DTLB TIMELY PREFETCHES:          0 LATE PREFETCHES: 0 DROPPED PREFETCHES: 0
DTLB PREFETCHES SAME FILL-ORIGIN LEVEL: 0 DIFFERENT FILL-ORIGIN LEVEL: 0
DTLB AVERAGE MISS LATENCY: 9.32538 cycles
DTLB RQ	ACCESS:   63781267	FORWARD:          0	MERGED:    8851293	TO_CACHE:   54929974

STLB TOTAL     ACCESS:     619299  HIT:     619101  MISS:        198  HIT %:     99.968  MISS %:  0.0319716   MPKI: 0.00099
STLB LOAD TRANSLATION ACCESS:      87904  HIT:      87706  MISS:        198  HIT %:    99.7748  MISS %:   0.225246   MPKI: 0.00099
STLB TRANSLATION FROM L1D PREFETCHER ACCESS:     531395  HIT:     531395  MISS:          0  HIT %:        100  MISS %:          0   MPKI: 0
STLB PREFETCH  REQUESTED:          0  ISSUED:          0  USEFUL:          0  USELESS:          0
STLB USEFUL LOAD PREFETCHES:          0 PREFETCH ISSUED TO LOWER LEVEL:          0  ACCURACY: -nan
STLB TIMELY PREFETCHES:          0 LATE PREFETCHES: 2 DROPPED PREFETCHES: 4479
STLB PREFETCHES SAME FILL-ORIGIN LEVEL: 0 DIFFERENT FILL-ORIGIN LEVEL: 0
STLB AVERAGE MISS LATENCY: 162.056 cycles
STLB RQ	ACCESS:    3302690	FORWARD:          0	MERGED:    2678630	TO_CACHE:     624060

STLB Hit, L1D data hit: 0
STLB Hit, L2C data hit: 0
STLB Hit, LLC data hit: 0
STLB Hit, LLC data miss: 0
STLB STLB hints to L2: 0
L1D TOTAL     ACCESS:   66198458  HIT:   65714761  MISS:     483697  HIT %:    99.2693  MISS %:   0.730677   MPKI: 2.41848
L1D LOAD      ACCESS:   40898842  HIT:   40564686  MISS:     334156  HIT %:     99.183  MISS %:    0.81703   MPKI: 1.67078
L1D RFO       ACCESS:   22791569  HIT:   22731527  MISS:      60042  HIT %:    99.7366  MISS %:    0.26344   MPKI: 0.30021
L1D PREFETCH  ACCESS:    2508047  HIT:    2418548  MISS:      89499  HIT %:    96.4315  MISS %:    3.56847   MPKI: 0.447495
L1D PREFETCH  REQUESTED:    6528837  ISSUED:    6528536  USEFUL:      73999  USELESS:      15492
L1D USEFUL LOAD PREFETCHES:      73999 PREFETCH ISSUED TO LOWER LEVEL:     780435  ACCURACY: 9.48176
L1D TIMELY PREFETCHES:      73999 LATE PREFETCHES: 1318 DROPPED PREFETCHES: 12138
L1D PREFETCHES SAME FILL-ORIGIN LEVEL: 90817 DIFFERENT FILL-ORIGIN LEVEL: 689618
L1D AVERAGE MISS LATENCY: 15.8362 cycles
L1D RQ	ACCESS:   52454996	FORWARD:          0	MERGED:    9455064	TO_CACHE:   40905833
L1D WQ	ACCESS:   23320668	FORWARD:    2094099	MERGED:     445234	TO_CACHE:   22875434
L1D PQ	ACCESS:    3313750	FORWARD:          0	MERGED:      98964	TO_CACHE:    3214786

L1D UNIQUE REGIONS ACCESSED: 0
L1D REGIONS CONFLICTS: 0
L1D Cross Page Prefetch Requests: 396242
L1D Same Page Prefetch Requests: 3819000
L1D ROI Sum of L1D PQ occupancy: 46992181
L1D PREFETCHES PUSHED FROM L2C: 0
L1I TOTAL     ACCESS:   39934335  HIT:   39921249  MISS:      13086  HIT %:    99.9672  MISS %:  0.0327688   MPKI: 0.06543
L1I LOAD      ACCESS:   39934335  HIT:   39921249  MISS:      13086  HIT %:    99.9672  MISS %:  0.0327688   MPKI: 0.06543
L1I PREFETCH  REQUESTED:          0  ISSUED:          0  USEFUL:          0  USELESS:          0
L1I USEFUL LOAD PREFETCHES:          0 PREFETCH ISSUED TO LOWER LEVEL:          0  ACCURACY: -nan
L1I TIMELY PREFETCHES:          0 LATE PREFETCHES: 0 DROPPED PREFETCHES: 0
L1I PREFETCHES SAME FILL-ORIGIN LEVEL: 0 DIFFERENT FILL-ORIGIN LEVEL: 0
L1I AVERAGE MISS LATENCY: 14.6476 cycles
L1I RQ	ACCESS:   57287385	FORWARD:          0	MERGED:   17348549	TO_CACHE:   39938836

BTB TOTAL     ACCESS:   31949221  HIT:   29644440  MISS:    2304781  HIT %:    92.7861  MISS %:    7.21389   MPKI: 11.5239
BTB BRANCH_DIRECT_JUMP	ACCESS:    1054691  HIT:    1054606  MISS:         85
BTB BRANCH_INDIRECT	ACCESS:       1433  HIT:       1332  MISS:        101
BTB BRANCH_CONDITIONAL	ACCESS:   18991845  HIT:   18990335  MISS:       1510
BTB BRANCH_DIRECT_CALL	ACCESS:    5950626  HIT:    5950002  MISS:        624
BTB BRANCH_INDIRECT_CALL	ACCESS:          0  HIT:          0  MISS:          0
BTB BRANCH_RETURN	ACCESS:    5950626  HIT:    3648165  MISS:    2302461
BTB BRANCH_OTHER ACCESS:          0  HIT:          0  MISS:          0

L2C TOTAL     ACCESS:    1296894  HIT:    1291944  MISS:       4950  HIT %:    99.6183  MISS %:   0.381681   MPKI: 0.02475
L2C LOAD      ACCESS:     345924  HIT:     343449  MISS:       2475  HIT %:    99.2845  MISS %:   0.715475   MPKI: 0.012375
L2C DATA LOAD MPKI: 0.012125
L2C INSTRUCTION LOAD MPKI: 0.00025
L2C RFO       ACCESS:      60042  HIT:      59737  MISS:        305  HIT %:     99.492  MISS %:   0.507978   MPKI: 0.001525
L2C PREFETCH  ACCESS:     779589  HIT:     777522  MISS:       2067  HIT %:    99.7349  MISS %:    0.26514   MPKI: 0.010335
L2C DATA PREFETCH MPKI: 0.010335
L2C INSTRUCTION PREFETCH MPKI: 0
L2C WRITEBACK ACCESS:     106660  HIT:     106641  MISS:         19  HIT %:    99.9822  MISS %:  0.0178136   MPKI: 9.5e-05
L2C LOAD TRANSLATION ACCESS:        198  HIT:        130  MISS:         68  HIT %:    65.6566  MISS %:    34.3434   MPKI: 0.00034
L2C TRANSLATION FROM L1D PREFETCHER ACCESS:       4481  HIT:       4465  MISS:         16  HIT %:    99.6429  MISS %:   0.357063   MPKI: 8e-05
L2C PREFETCH  REQUESTED:          0  ISSUED:          0  USEFUL:        762  USELESS:        573
L2C USEFUL LOAD PREFETCHES:        762 PREFETCH ISSUED TO LOWER LEVEL:       2077  ACCURACY: 36.6875
L2C TIMELY PREFETCHES:        762 LATE PREFETCHES: 10 DROPPED PREFETCHES: 0
L2C PREFETCHES SAME FILL-ORIGIN LEVEL: 1010 DIFFERENT FILL-ORIGIN LEVEL: 0
L2C AVERAGE MISS LATENCY: 106.481 cycles
L2C RQ	ACCESS:     410645	FORWARD:          0	MERGED:          0	TO_CACHE:     410645
L2C WQ	ACCESS:     106660	FORWARD:          0	MERGED:          0	TO_CACHE:     106660
L2C PQ	ACCESS:     780435	FORWARD:          0	MERGED:         51	TO_CACHE:     780384

L2C Instructions Evicting Data 27
L2C Translations Evicting Data 36
L2C Data Evicting Data 2770
L2C Instructions Evicting Instructions 0
L2C Translations Evicting Instructions 2
L2C Data Evicting Instructions 122
L2C Instructions Evicting Translations 0
L2C Translations Evicting Translations 1
L2C Data Evicting Translations 76
L2C Dense regions hint from L2: 0
PSCL5 TOTAL     ACCESS:       4679  HIT:       4679  MISS:          0  HIT %:        100  MISS %:          0   MPKI: 0
PSCL5 LOAD TRANSLATION ACCESS:        198  HIT:        198  MISS:          0  HIT %:        100  MISS %:          0   MPKI: 0
PSCL5 TRANSLATION FROM L1D PREFETCHER ACCESS:       4481  HIT:       4481  MISS:          0  HIT %:        100  MISS %:          0   MPKI: 0
PSCL5 PREFETCH  REQUESTED:          0  ISSUED:          0  USEFUL:          0  USELESS:          0
PSCL5 USEFUL LOAD PREFETCHES:          0 PREFETCH ISSUED TO LOWER LEVEL:          0  ACCURACY: -nan
PSCL5 TIMELY PREFETCHES:          0 LATE PREFETCHES: 0 DROPPED PREFETCHES: 0
PSCL5 PREFETCHES SAME FILL-ORIGIN LEVEL: 0 DIFFERENT FILL-ORIGIN LEVEL: 0

PSCL4 TOTAL     ACCESS:       4679  HIT:       4679  MISS:          0  HIT %:        100  MISS %:          0   MPKI: 0
PSCL4 LOAD TRANSLATION ACCESS:        198  HIT:        198  MISS:          0  HIT %:        100  MISS %:          0   MPKI: 0
PSCL4 TRANSLATION FROM L1D PREFETCHER ACCESS:       4481  HIT:       4481  MISS:          0  HIT %:        100  MISS %:          0   MPKI: 0
PSCL4 PREFETCH  REQUESTED:          0  ISSUED:          0  USEFUL:          0  USELESS:          0
PSCL4 USEFUL LOAD PREFETCHES:          0 PREFETCH ISSUED TO LOWER LEVEL:          0  ACCURACY: -nan
PSCL4 TIMELY PREFETCHES:          0 LATE PREFETCHES: 0 DROPPED PREFETCHES: 0
PSCL4 PREFETCHES SAME FILL-ORIGIN LEVEL: 0 DIFFERENT FILL-ORIGIN LEVEL: 0

PSCL3 TOTAL     ACCESS:       4679  HIT:       4679  MISS:          0  HIT %:        100  MISS %:          0   MPKI: 0
PSCL3 LOAD TRANSLATION ACCESS:        198  HIT:        198  MISS:          0  HIT %:        100  MISS %:          0   MPKI: 0
PSCL3 TRANSLATION FROM L1D PREFETCHER ACCESS:       4481  HIT:       4481  MISS:          0  HIT %:        100  MISS %:          0   MPKI: 0
PSCL3 PREFETCH  REQUESTED:          0  ISSUED:          0  USEFUL:          0  USELESS:          0
PSCL3 USEFUL LOAD PREFETCHES:          0 PREFETCH ISSUED TO LOWER LEVEL:          0  ACCURACY: -nan
PSCL3 TIMELY PREFETCHES:          0 LATE PREFETCHES: 0 DROPPED PREFETCHES: 0
PSCL3 PREFETCHES SAME FILL-ORIGIN LEVEL: 0 DIFFERENT FILL-ORIGIN LEVEL: 0

PSCL2 TOTAL     ACCESS:       4679  HIT:       4679  MISS:          0  HIT %:        100  MISS %:          0   MPKI: 0
PSCL2 LOAD TRANSLATION ACCESS:        198  HIT:        198  MISS:          0  HIT %:        100  MISS %:          0   MPKI: 0
PSCL2 TRANSLATION FROM L1D PREFETCHER ACCESS:       4481  HIT:       4481  MISS:          0  HIT %:        100  MISS %:          0   MPKI: 0
PSCL2 PREFETCH  REQUESTED:          0  ISSUED:          0  USEFUL:          0  USELESS:          0
PSCL2 USEFUL LOAD PREFETCHES:          0 PREFETCH ISSUED TO LOWER LEVEL:          0  ACCURACY: -nan
PSCL2 TIMELY PREFETCHES:          0 LATE PREFETCHES: 0 DROPPED PREFETCHES: 0
PSCL2 PREFETCHES SAME FILL-ORIGIN LEVEL: 0 DIFFERENT FILL-ORIGIN LEVEL: 0

LLC TOTAL     ACCESS:       5314  HIT:       2157  MISS:       3157  HIT %:    40.5909  MISS %:    59.4091   MPKI: 0.015785
LLC LOAD      ACCESS:       2465  HIT:       1431  MISS:       1034  HIT %:    58.0527  MISS %:    41.9473   MPKI: 0.00517
LLC RFO       ACCESS:        305  HIT:          5  MISS:        300  HIT %:    1.63934  MISS %:    98.3607   MPKI: 0.0015
LLC PREFETCH  ACCESS:       2077  HIT:        310  MISS:       1767  HIT %:    14.9254  MISS %:    85.0746   MPKI: 0.008835
LLC WRITEBACK ACCESS:        383  HIT:        379  MISS:          4  HIT %:    98.9556  MISS %:    1.04439   MPKI: 2e-05
LLC LOAD TRANSLATION ACCESS:         68  HIT:         21  MISS:         47  HIT %:    30.8824  MISS %:    69.1176   MPKI: 0.000235
LLC TRANSLATION FROM L1D PREFETCHER ACCESS:         16  HIT:         11  MISS:          5  HIT %:      68.75  MISS %:      31.25   MPKI: 2.5e-05
LLC PREFETCH  REQUESTED:          0  ISSUED:          0  USEFUL:         11  USELESS:         35
LLC USEFUL LOAD PREFETCHES:         11 PREFETCH ISSUED TO LOWER LEVEL:       1767  ACCURACY: 0.622524
LLC TIMELY PREFETCHES:         11 LATE PREFETCHES: 0 DROPPED PREFETCHES: 0
LLC PREFETCHES SAME FILL-ORIGIN LEVEL: 0 DIFFERENT FILL-ORIGIN LEVEL: 0
LLC AVERAGE MISS LATENCY: 119.9 cycles
LLC RQ	ACCESS:       2854	FORWARD:          0	MERGED:          0	TO_CACHE:       2854
LLC WQ	ACCESS:        383	FORWARD:          0	MERGED:          0	TO_CACHE:        383
LLC PQ	ACCESS:       2077	FORWARD:          0	MERGED:          0	TO_CACHE:       2077

LLC Dense regions hint to LLC: 0

RAW hits: 1863026
Loads Generated: 54318022
Loads sent to L1D: 52454996
Stores Generated: 23320664
Stores sent to L1D: 23320668
Major fault: 0 Minor fault: 648
Allocated PAGES: 648

DRAM Statistics
 CHANNEL 0
 RQ ROW_BUFFER_HIT:       1693  ROW_BUFFER_MISS:       1460
 DBUS_CONGESTED:          0
 WQ ROW_BUFFER_HIT:          0  ROW_BUFFER_MISS:          0  FULL:          0

 AVG_CONGESTED_CYCLE: -
 All warmup complete: 2
Channel 0 Bank busy for read cycles: 0
Channel 0 Bank busy for write cycles: 0
Channel 0
Rank 0
0banks busy for read cycles: 542990289
0banks busy for write cycles: 0
1banks busy for read cycles: 196822
1banks busy for write cycles: 0
2banks busy for read cycles: 18669
2banks busy for write cycles: 0
3banks busy for read cycles: 6145
3banks busy for write cycles: 0
4banks busy for read cycles: 3839
4banks busy for write cycles: 0
5banks busy for read cycles: 1327
5banks busy for write cycles: 0
6banks busy for read cycles: 791
6banks busy for write cycles: 0
7banks busy for read cycles: 1026
7banks busy for write cycles: 0
8banks busy for read cycles: 2142
8banks busy for write cycles: 0

CPU 0 Branch Prediction Accuracy: 87.9392% MPKI: 12.4661 Average ROB Occupancy at Mispredict: 20.912
Branch types
NOT_BRANCH: 166370273 83.1851%
BRANCH_DIRECT_JUMP: 1054691 0.527345%
BRANCH_INDIRECT: 1433 0.0007165%
BRANCH_CONDITIONAL: 20671973 10.336%
BRANCH_DIRECT_CALL: 5950626 2.97531%
BRANCH_INDIRECT_CALL: 0 0%
BRANCH_RETURN: 5950626 2.97531%
BRANCH_OTHER: 0 0%

DRAM PAGES: 1048576
Allocated PAGES: 648
