 (TOTAL 67349)
 
*** ChampSim Multicore Out-of-Order Simulator ***

Warmup Instructions: 50000000
Simulation Instructions: 200000000
Number of CPUs: 1
LLC sets: 2048
LLC ways: 16
Off-chip DRAM Size: 4096 MB Channels: 1 Width: 64-bit Data Rate: 6400 MT/s
argv[0]: ./ChampSim/Berti/bin/tagescl8kb-no-vberti-no-no-no-no-no-lru-lru-lru-srrip-drrip-lru-lru-lru-1core-no
argv[1]: -warmup_instructions
argv[2]: 50000000
argv[3]: -simulation_instructions
argv[4]: 200000000
argv[5]: -traces
argv[6]: traces/spec2k17_ten/641.leela_s-1083B.champsimtrace.xz
CPU 0 runs traces/spec2k17_ten/641.leela_s-1083B.champsimtrace.xz
.xz
CPU 0 Tage branch predictor
BTB has LRU replacement policy
ITLB has LRU replacement policy
DTLB has LRU replacement policy
STLB has LRU replacement policy
L1I has LRU replacement policy
History Sets: 8
History Ways: 16
BERTI Size: 16
BERTI Stride Size: 16
L1D has LRU replacement policy
Initialize SRRIP state for L2C
Initialize DRRIP state for LLC
Heartbeat CPU 0 instructions: 10000000 cycles: 3152127 heartbeat IPC: 3.17246 cumulative IPC: 3.17246 (Simulation time: 0 hr 3 min 13 sec) 
Heartbeat CPU 0 instructions: 20000000 cycles: 6313424 heartbeat IPC: 3.16326 cumulative IPC: 3.16785 (Simulation time: 0 hr 6 min 49 sec) 
Heartbeat CPU 0 instructions: 30000003 cycles: 9485738 heartbeat IPC: 3.15227 cumulative IPC: 3.16264 (Simulation time: 0 hr 11 min 53 sec) 
Heartbeat CPU 0 instructions: 40000003 cycles: 12643192 heartbeat IPC: 3.16711 cumulative IPC: 3.16376 (Simulation time: 0 hr 15 min 43 sec) 
Heartbeat CPU 0 instructions: 50000003 cycles: 15799746 heartbeat IPC: 3.16801 cumulative IPC: 3.16461 (Simulation time: 0 hr 21 min 31 sec) 

Warmup complete CPU 0 instructions: 50000003 cycles: 15799746 (Simulation time: 0 hr 21 min 31 sec) 

Heartbeat CPU 0 instructions: 60000002 cycles: 42889435 heartbeat IPC: 0.369144 cumulative IPC: 0.369144 (Simulation time: 0 hr 27 min 27 sec) 
Heartbeat CPU 0 instructions: 70000002 cycles: 70289319 heartbeat IPC: 0.364965 cumulative IPC: 0.367043 (Simulation time: 0 hr 35 min 35 sec) 
Heartbeat CPU 0 instructions: 80000000 cycles: 97364133 heartbeat IPC: 0.369347 cumulative IPC: 0.367808 (Simulation time: 0 hr 41 min 27 sec) 
Heartbeat CPU 0 instructions: 90000003 cycles: 125207244 heartbeat IPC: 0.359155 cumulative IPC: 0.365606 (Simulation time: 0 hr 46 min 52 sec) 
Heartbeat CPU 0 instructions: 100000001 cycles: 152654937 heartbeat IPC: 0.364329 cumulative IPC: 0.36535 (Simulation time: 0 hr 53 min 41 sec) 
Heartbeat CPU 0 instructions: 110000000 cycles: 179572207 heartbeat IPC: 0.371509 cumulative IPC: 0.366362 (Simulation time: 0 hr 59 min 54 sec) 
Heartbeat CPU 0 instructions: 120000000 cycles: 206455660 heartbeat IPC: 0.371976 cumulative IPC: 0.367154 (Simulation time: 1 hr 5 min 43 sec) 
Heartbeat CPU 0 instructions: 130000001 cycles: 233717493 heartbeat IPC: 0.366813 cumulative IPC: 0.367111 (Simulation time: 1 hr 11 min 22 sec) 
Heartbeat CPU 0 instructions: 140000000 cycles: 261074004 heartbeat IPC: 0.365544 cumulative IPC: 0.366936 (Simulation time: 1 hr 15 min 40 sec) 
Heartbeat CPU 0 instructions: 150000000 cycles: 288151993 heartbeat IPC: 0.369304 cumulative IPC: 0.367172 (Simulation time: 1 hr 20 min 33 sec) 
Heartbeat CPU 0 instructions: 160000000 cycles: 314977801 heartbeat IPC: 0.372775 cumulative IPC: 0.367674 (Simulation time: 1 hr 25 min 0 sec) 
Heartbeat CPU 0 instructions: 170000001 cycles: 341933561 heartbeat IPC: 0.370978 cumulative IPC: 0.367947 (Simulation time: 1 hr 29 min 1 sec) 
Heartbeat CPU 0 instructions: 180000000 cycles: 369148083 heartbeat IPC: 0.367451 cumulative IPC: 0.367909 (Simulation time: 1 hr 32 min 16 sec) 
Heartbeat CPU 0 instructions: 190000000 cycles: 396193125 heartbeat IPC: 0.369754 cumulative IPC: 0.36804 (Simulation time: 1 hr 35 min 52 sec) 
Heartbeat CPU 0 instructions: 200000001 cycles: 423386176 heartbeat IPC: 0.367741 cumulative IPC: 0.36802 (Simulation time: 1 hr 38 min 16 sec) 
Heartbeat CPU 0 instructions: 210000003 cycles: 451028974 heartbeat IPC: 0.361758 cumulative IPC: 0.367622 (Simulation time: 1 hr 41 min 11 sec) 
Heartbeat CPU 0 instructions: 220000000 cycles: 478541702 heartbeat IPC: 0.363468 cumulative IPC: 0.367375 (Simulation time: 1 hr 44 min 2 sec) 
Heartbeat CPU 0 instructions: 230000000 cycles: 506142591 heartbeat IPC: 0.362307 cumulative IPC: 0.36709 (Simulation time: 1 hr 46 min 8 sec) 
Heartbeat CPU 0 instructions: 240000000 cycles: 533286307 heartbeat IPC: 0.368409 cumulative IPC: 0.367159 (Simulation time: 1 hr 48 min 18 sec) 
Heartbeat CPU 0 instructions: 250000000 cycles: 592227470 heartbeat IPC: 0.169661 cumulative IPC: 0.346965 (Simulation time: 1 hr 53 min 6 sec) 
Finished CPU 0 instructions: 200000000 cycles: 576427775 cumulative IPC: 0.346965 (Simulation time: 1 hr 53 min 6 sec) 

ChampSim completed all CPUs

Region of Interest Statistics

CPU 0 cumulative IPC: 0.346965 instructions: 200000000 cycles: 576427775
ITLB TOTAL     ACCESS:   36705448  HIT:   36705200  MISS:        248  HIT %:    99.9993  MISS %: 0.000675649   MPKI: 0.00124
ITLB LOAD TRANSLATION ACCESS:   36705448  HIT:   36705200  MISS:        248  HIT %:    99.9993  MISS %: 0.000675649   MPKI: 0.00124
ITLB PREFETCH  REQUESTED:          0  ISSUED:          0  USEFUL:          0  USELESS:          0
ITLB USEFUL LOAD PREFETCHES:          0 PREFETCH ISSUED TO LOWER LEVEL:          0  ACCURACY: -nan
ITLB TIMELY PREFETCHES:          0 LATE PREFETCHES: 0 DROPPED PREFETCHES: 0
ITLB PREFETCHES SAME FILL-ORIGIN LEVEL: 0 DIFFERENT FILL-ORIGIN LEVEL: 0
ITLB AVERAGE MISS LATENCY: 119.31 cycles
ITLB RQ	ACCESS:   41708652	FORWARD:          0	MERGED:    5003137	TO_CACHE:   36705515

DTLB TOTAL     ACCESS:   59809105  HIT:   59705248  MISS:     103857  HIT %:    99.8264  MISS %:   0.173647   MPKI: 0.519285
DTLB LOAD TRANSLATION ACCESS:   59809105  HIT:   59705248  MISS:     103857  HIT %:    99.8264  MISS %:   0.173647   MPKI: 0.519285
DTLB PREFETCH  REQUESTED:          0  ISSUED:          0  USEFUL:          0  USELESS:          0
DTLB USEFUL LOAD PREFETCHES:          0 PREFETCH ISSUED TO LOWER LEVEL:          0  ACCURACY: -nan
DTLB TIMELY PREFETCHES:          0 LATE PREFETCHES: 0 DROPPED PREFETCHES: 0
DTLB PREFETCHES SAME FILL-ORIGIN LEVEL: 0 DIFFERENT FILL-ORIGIN LEVEL: 0
DTLB AVERAGE MISS LATENCY: 13.1076 cycles
DTLB RQ	ACCESS:   67633703	FORWARD:          0	MERGED:    7809117	TO_CACHE:   59824586

STLB TOTAL     ACCESS:    3490668  HIT:    3484462  MISS:       6206  HIT %:    99.8222  MISS %:   0.177788   MPKI: 0.03103
STLB LOAD TRANSLATION ACCESS:     104105  HIT:      99702  MISS:       4403  HIT %:    95.7706  MISS %:    4.22938   MPKI: 0.022015
STLB TRANSLATION FROM L1D PREFETCHER ACCESS:    3386563  HIT:    3384760  MISS:       1803  HIT %:    99.9468  MISS %:  0.0532398   MPKI: 0.009015
STLB PREFETCH  REQUESTED:          0  ISSUED:          0  USEFUL:       1781  USELESS:         14
STLB USEFUL LOAD PREFETCHES:       1781 PREFETCH ISSUED TO LOWER LEVEL:          0  ACCURACY: inf
STLB TIMELY PREFETCHES:       1781 LATE PREFETCHES: 354 DROPPED PREFETCHES: 27457
STLB PREFETCHES SAME FILL-ORIGIN LEVEL: 0 DIFFERENT FILL-ORIGIN LEVEL: 0
STLB AVERAGE MISS LATENCY: 93.613 cycles
STLB RQ	ACCESS:   22413511	FORWARD:          0	MERGED:   18885934	TO_CACHE:    3527577

STLB Hit, L1D data hit: 0
STLB Hit, L2C data hit: 0
STLB Hit, LLC data hit: 0
STLB Hit, LLC data miss: 0
STLB STLB hints to L2: 0
L1D TOTAL     ACCESS:   84244232  HIT:   82960501  MISS:    1283731  HIT %:    98.4762  MISS %:    1.52382   MPKI: 6.41866
L1D LOAD      ACCESS:   42330154  HIT:   41905128  MISS:     425026  HIT %:    98.9959  MISS %:    1.00407   MPKI: 2.12513
L1D RFO       ACCESS:   23086198  HIT:   22655720  MISS:     430478  HIT %:    98.1353  MISS %:    1.86466   MPKI: 2.15239
L1D PREFETCH  ACCESS:   18827880  HIT:   18399653  MISS:     428227  HIT %:    97.7256  MISS %:    2.27443   MPKI: 2.14113
L1D PREFETCH  REQUESTED:   45708121  ISSUED:   45690705  USEFUL:     405241  USELESS:      22983
L1D USEFUL LOAD PREFETCHES:     405241 PREFETCH ISSUED TO LOWER LEVEL:    2202462  ACCURACY: 18.3995
L1D TIMELY PREFETCHES:     405241 LATE PREFETCHES: 4195 DROPPED PREFETCHES: 84286
L1D PREFETCHES SAME FILL-ORIGIN LEVEL: 432424 DIFFERENT FILL-ORIGIN LEVEL: 1770038
L1D AVERAGE MISS LATENCY: 126.762 cycles
L1D RQ	ACCESS:   53631152	FORWARD:          0	MERGED:    9254379	TO_CACHE:   42352580
L1D WQ	ACCESS:   25679663	FORWARD:    2024193	MERGED:     398540	TO_CACHE:   25281123
L1D PQ	ACCESS:   23381299	FORWARD:          0	MERGED:    1071893	TO_CACHE:   22309406

L1D UNIQUE REGIONS ACCESSED: 0
L1D REGIONS CONFLICTS: 0
L1D Cross Page Prefetch Requests: 2384681
L1D Same Page Prefetch Requests: 21962447
L1D ROI Sum of L1D PQ occupancy: 329431344
L1D PREFETCHES PUSHED FROM L2C: 0
L1I TOTAL     ACCESS:   41703071  HIT:   41687644  MISS:      15427  HIT %:     99.963  MISS %:  0.0369925   MPKI: 0.077135
L1I LOAD      ACCESS:   41703071  HIT:   41687644  MISS:      15427  HIT %:     99.963  MISS %:  0.0369925   MPKI: 0.077135
L1I PREFETCH  REQUESTED:          0  ISSUED:          0  USEFUL:          0  USELESS:          0
L1I USEFUL LOAD PREFETCHES:          0 PREFETCH ISSUED TO LOWER LEVEL:          0  ACCURACY: -nan
L1I TIMELY PREFETCHES:          0 LATE PREFETCHES: 0 DROPPED PREFETCHES: 0
L1I PREFETCHES SAME FILL-ORIGIN LEVEL: 0 DIFFERENT FILL-ORIGIN LEVEL: 0
L1I AVERAGE MISS LATENCY: 45.9746 cycles
L1I RQ	ACCESS:   58758146	FORWARD:          0	MERGED:   17049494	TO_CACHE:   41708652

BTB TOTAL     ACCESS:   31329121  HIT:   29031204  MISS:    2297917  HIT %:    92.6652  MISS %:    7.33476   MPKI: 11.4896
BTB BRANCH_DIRECT_JUMP	ACCESS:    1094608  HIT:    1094408  MISS:        200
BTB BRANCH_INDIRECT	ACCESS:       6209  HIT:       4182  MISS:       2027
BTB BRANCH_CONDITIONAL	ACCESS:   18688882  HIT:   18687006  MISS:       1876
BTB BRANCH_DIRECT_CALL	ACCESS:    5769438  HIT:    5768610  MISS:        828
BTB BRANCH_INDIRECT_CALL	ACCESS:        272  HIT:        218  MISS:         54
BTB BRANCH_RETURN	ACCESS:    5769712  HIT:    3476780  MISS:    2292932
BTB BRANCH_OTHER ACCESS:          0  HIT:          0  MISS:          0

L2C TOTAL     ACCESS:    3248438  HIT:    2481024  MISS:     767414  HIT %:    76.3759  MISS %:    23.6241   MPKI: 3.83707
L2C LOAD      ACCESS:     436256  HIT:     379343  MISS:      56913  HIT %:    86.9542  MISS %:    13.0458   MPKI: 0.284565
L2C DATA LOAD MPKI: 0.27106
L2C INSTRUCTION LOAD MPKI: 0.013505
L2C RFO       ACCESS:     430463  HIT:      64760  MISS:     365703  HIT %:    15.0443  MISS %:    84.9557   MPKI: 1.82851
L2C PREFETCH  ACCESS:    1856040  HIT:    1515281  MISS:     340759  HIT %:    81.6405  MISS %:    18.3595   MPKI: 1.70379
L2C DATA PREFETCH MPKI: 1.70379
L2C INSTRUCTION PREFETCH MPKI: 0
L2C WRITEBACK ACCESS:     491671  HIT:     489363  MISS:       2308  HIT %:    99.5306  MISS %:    0.46942   MPKI: 0.01154
L2C LOAD TRANSLATION ACCESS:       4394  HIT:       3186  MISS:       1208  HIT %:     72.508  MISS %:     27.492   MPKI: 0.00604
L2C TRANSLATION FROM L1D PREFETCHER ACCESS:      29614  HIT:      29091  MISS:        523  HIT %:    98.2339  MISS %:    1.76606   MPKI: 0.002615
L2C PREFETCH  REQUESTED:          0  ISSUED:          0  USEFUL:      15946  USELESS:     325396
L2C USEFUL LOAD PREFETCHES:      15946 PREFETCH ISSUED TO LOWER LEVEL:     345825  ACCURACY: 4.611
L2C TIMELY PREFETCHES:      15946 LATE PREFETCHES: 5064 DROPPED PREFETCHES: 0
L2C PREFETCHES SAME FILL-ORIGIN LEVEL: 96264 DIFFERENT FILL-ORIGIN LEVEL: 0
L2C AVERAGE MISS LATENCY: 211.877 cycles
L2C RQ	ACCESS:     900746	FORWARD:          0	MERGED:          0	TO_CACHE:     900729
L2C WQ	ACCESS:     491671	FORWARD:         17	MERGED:          0	TO_CACHE:     491671
L2C PQ	ACCESS:    2201775	FORWARD:          0	MERGED:       1118	TO_CACHE:    2200657

L2C Instructions Evicting Data 2601
L2C Translations Evicting Data 1688
L2C Data Evicting Data 754470
L2C Instructions Evicting Instructions 94
L2C Translations Evicting Instructions 16
L2C Data Evicting Instructions 2847
L2C Instructions Evicting Translations 5
L2C Translations Evicting Translations 0
L2C Data Evicting Translations 1860
L2C Dense regions hint from L2: 0
PSCL5 TOTAL     ACCESS:      34008  HIT:      34008  MISS:          0  HIT %:        100  MISS %:          0   MPKI: 0
PSCL5 LOAD TRANSLATION ACCESS:       4394  HIT:       4394  MISS:          0  HIT %:        100  MISS %:          0   MPKI: 0
PSCL5 TRANSLATION FROM L1D PREFETCHER ACCESS:      29614  HIT:      29614  MISS:          0  HIT %:        100  MISS %:          0   MPKI: 0
PSCL5 PREFETCH  REQUESTED:          0  ISSUED:          0  USEFUL:          0  USELESS:          0
PSCL5 USEFUL LOAD PREFETCHES:          0 PREFETCH ISSUED TO LOWER LEVEL:          0  ACCURACY: -nan
PSCL5 TIMELY PREFETCHES:          0 LATE PREFETCHES: 0 DROPPED PREFETCHES: 0
PSCL5 PREFETCHES SAME FILL-ORIGIN LEVEL: 0 DIFFERENT FILL-ORIGIN LEVEL: 0

PSCL4 TOTAL     ACCESS:      34008  HIT:      34008  MISS:          0  HIT %:        100  MISS %:          0   MPKI: 0
PSCL4 LOAD TRANSLATION ACCESS:       4394  HIT:       4394  MISS:          0  HIT %:        100  MISS %:          0   MPKI: 0
PSCL4 TRANSLATION FROM L1D PREFETCHER ACCESS:      29614  HIT:      29614  MISS:          0  HIT %:        100  MISS %:          0   MPKI: 0
PSCL4 PREFETCH  REQUESTED:          0  ISSUED:          0  USEFUL:          0  USELESS:          0
PSCL4 USEFUL LOAD PREFETCHES:          0 PREFETCH ISSUED TO LOWER LEVEL:          0  ACCURACY: -nan
PSCL4 TIMELY PREFETCHES:          0 LATE PREFETCHES: 0 DROPPED PREFETCHES: 0
PSCL4 PREFETCHES SAME FILL-ORIGIN LEVEL: 0 DIFFERENT FILL-ORIGIN LEVEL: 0

PSCL3 TOTAL     ACCESS:      34008  HIT:      34008  MISS:          0  HIT %:        100  MISS %:          0   MPKI: 0
PSCL3 LOAD TRANSLATION ACCESS:       4394  HIT:       4394  MISS:          0  HIT %:        100  MISS %:          0   MPKI: 0
PSCL3 TRANSLATION FROM L1D PREFETCHER ACCESS:      29614  HIT:      29614  MISS:          0  HIT %:        100  MISS %:          0   MPKI: 0
PSCL3 PREFETCH  REQUESTED:          0  ISSUED:          0  USEFUL:          0  USELESS:          0
PSCL3 USEFUL LOAD PREFETCHES:          0 PREFETCH ISSUED TO LOWER LEVEL:          0  ACCURACY: -nan
PSCL3 TIMELY PREFETCHES:          0 LATE PREFETCHES: 0 DROPPED PREFETCHES: 0
PSCL3 PREFETCHES SAME FILL-ORIGIN LEVEL: 0 DIFFERENT FILL-ORIGIN LEVEL: 0

PSCL2 TOTAL     ACCESS:      34008  HIT:      34006  MISS:          2  HIT %:    99.9941  MISS %: 0.00588097   MPKI: 1e-05
PSCL2 LOAD TRANSLATION ACCESS:       4394  HIT:       4392  MISS:          2  HIT %:    99.9545  MISS %:  0.0455166   MPKI: 1e-05
PSCL2 TRANSLATION FROM L1D PREFETCHER ACCESS:      29614  HIT:      29614  MISS:          0  HIT %:        100  MISS %:          0   MPKI: 0
PSCL2 PREFETCH  REQUESTED:          0  ISSUED:          0  USEFUL:          0  USELESS:          0
PSCL2 USEFUL LOAD PREFETCHES:          0 PREFETCH ISSUED TO LOWER LEVEL:          0  ACCURACY: -nan
PSCL2 TIMELY PREFETCHES:          0 LATE PREFETCHES: 0 DROPPED PREFETCHES: 0
PSCL2 PREFETCHES SAME FILL-ORIGIN LEVEL: 0 DIFFERENT FILL-ORIGIN LEVEL: 0

LLC TOTAL     ACCESS:    1136303  HIT:     274147  MISS:     862156  HIT %:    24.1262  MISS %:    75.8738   MPKI: 4.31078
LLC LOAD      ACCESS:      51849  HIT:       9306  MISS:      42543  HIT %:    17.9483  MISS %:    82.0517   MPKI: 0.212715
LLC RFO       ACCESS:     365703  HIT:      39005  MISS:     326698  HIT %:    10.6658  MISS %:    89.3342   MPKI: 1.63349
LLC PREFETCH  ACCESS:     345823  HIT:      44576  MISS:     301247  HIT %:    12.8898  MISS %:    87.1102   MPKI: 1.50623
LLC WRITEBACK ACCESS:     371197  HIT:     180970  MISS:     190227  HIT %:    48.7531  MISS %:    51.2469   MPKI: 0.951135
LLC LOAD TRANSLATION ACCESS:       1208  HIT:        218  MISS:        990  HIT %:    18.0464  MISS %:    81.9536   MPKI: 0.00495
LLC TRANSLATION FROM L1D PREFETCHER ACCESS:        523  HIT:         72  MISS:        451  HIT %:    13.7667  MISS %:    86.2333   MPKI: 0.002255
LLC PREFETCH  REQUESTED:          0  ISSUED:          0  USEFUL:       2772  USELESS:     301243
LLC USEFUL LOAD PREFETCHES:       2772 PREFETCH ISSUED TO LOWER LEVEL:     301248  ACCURACY: 0.920172
LLC TIMELY PREFETCHES:       2772 LATE PREFETCHES: 0 DROPPED PREFETCHES: 0
LLC PREFETCHES SAME FILL-ORIGIN LEVEL: 0 DIFFERENT FILL-ORIGIN LEVEL: 0
LLC AVERAGE MISS LATENCY: 162.425 cycles
LLC RQ	ACCESS:     419285	FORWARD:          0	MERGED:          0	TO_CACHE:     419285
LLC WQ	ACCESS:     371197	FORWARD:          0	MERGED:          0	TO_CACHE:     371197
LLC PQ	ACCESS:     345825	FORWARD:          0	MERGED:          0	TO_CACHE:     345825

LLC Dense regions hint to LLC: 0

RAW hits: 1799162
Loads Generated: 55430315
Loads sent to L1D: 53631152
Stores Generated: 25679661
Stores sent to L1D: 25679663
Major fault: 0 Minor fault: 2275
Allocated PAGES: 2275

DRAM Statistics
 CHANNEL 0
 RQ ROW_BUFFER_HIT:     139819  ROW_BUFFER_MISS:     531905
 DBUS_CONGESTED:         95
 WQ ROW_BUFFER_HIT:      49548  ROW_BUFFER_MISS:     251433  FULL:          0

 AVG_CONGESTED_CYCLE: 5
 All warmup complete: 2
Channel 0 Bank busy for read cycles: 0
Channel 0 Bank busy for write cycles: 0
Channel 0
Rank 0
0banks busy for read cycles: 529553225
0banks busy for write cycles: 2501
1banks busy for read cycles: 10485311
1banks busy for write cycles: 433548
2banks busy for read cycles: 16010617
2banks busy for write cycles: 256582
3banks busy for read cycles: 5608411
3banks busy for write cycles: 189752
4banks busy for read cycles: 3390438
4banks busy for write cycles: 165198
5banks busy for read cycles: 819969
5banks busy for write cycles: 169263
6banks busy for read cycles: 451399
6banks busy for write cycles: 192840
7banks busy for read cycles: 415967
7banks busy for write cycles: 649178
8banks busy for read cycles: 713314
8banks busy for write cycles: 6920263

CPU 0 Branch Prediction Accuracy: 88.2342% MPKI: 12.1284 Average ROB Occupancy at Mispredict: 20.9028
Branch types
NOT_BRANCH: 166743419 83.3717%
BRANCH_DIRECT_JUMP: 1094608 0.547304%
BRANCH_INDIRECT: 6209 0.0031045%
BRANCH_CONDITIONAL: 20616346 10.3082%
BRANCH_DIRECT_CALL: 5769438 2.88472%
BRANCH_INDIRECT_CALL: 272 0.000136%
BRANCH_RETURN: 5769712 2.88486%
BRANCH_OTHER: 0 0%

DRAM PAGES: 1048576
Allocated PAGES: 2275
