 (TOTAL 523355 bits 511 Kbits) 
*** ChampSim Multicore Out-of-Order Simulator ***

Warmup Instructions: 50000000
Simulation Instructions: 200000000
Number of CPUs: 1
LLC sets: 2048
LLC ways: 16
Off-chip DRAM Size: 4096 MB Channels: 1 Width: 64-bit Data Rate: 6400 MT/s
argv[0]: ./ChampSim/Berti/bin/tagescl-no-vberti-no-no-no-no-no-lru-lru-lru-srrip-drrip-lru-lru-lru-1core-no
argv[1]: -warmup_instructions
argv[2]: 50000000
argv[3]: -simulation_instructions
argv[4]: 200000000
argv[5]: -traces
argv[6]: traces/spec2k17_ten/621.wrf_s-575B.champsimtrace.xz
CPU 0 runs traces/spec2k17_ten/621.wrf_s-575B.champsimtrace.xz
.xz
CPU 0 Tage branch predictor
BTB has LRU replacement policy
ITLB has LRU replacement policy
DTLB has LRU replacement policy
STLB has LRU replacement policy
L1I has LRU replacement policy
History Sets: 8
History Ways: 16
BERTI Size: 16
BERTI Stride Size: 16
L1D has LRU replacement policy
Initialize SRRIP state for L2C
Initialize DRRIP state for LLC
Heartbeat CPU 0 instructions: 10000000 cycles: 3626524 heartbeat IPC: 2.75746 cumulative IPC: 2.75746 (Simulation time: 0 hr 8 min 45 sec) 
Heartbeat CPU 0 instructions: 20000002 cycles: 7255590 heartbeat IPC: 2.75553 cumulative IPC: 2.7565 (Simulation time: 0 hr 17 min 1 sec) 
Heartbeat CPU 0 instructions: 30000000 cycles: 10888705 heartbeat IPC: 2.75246 cumulative IPC: 2.75515 (Simulation time: 0 hr 24 min 1 sec) 
Heartbeat CPU 0 instructions: 40000002 cycles: 14522709 heartbeat IPC: 2.75179 cumulative IPC: 2.75431 (Simulation time: 0 hr 30 min 17 sec) 
Heartbeat CPU 0 instructions: 50000002 cycles: 18156197 heartbeat IPC: 2.75218 cumulative IPC: 2.75388 (Simulation time: 0 hr 37 min 1 sec) 

Warmup complete CPU 0 instructions: 50000002 cycles: 18156197 (Simulation time: 0 hr 37 min 1 sec) 

Heartbeat CPU 0 instructions: 60000001 cycles: 35385658 heartbeat IPC: 0.580401 cumulative IPC: 0.580401 (Simulation time: 0 hr 42 min 17 sec) 
Heartbeat CPU 0 instructions: 70000000 cycles: 52543288 heartbeat IPC: 0.582831 cumulative IPC: 0.581614 (Simulation time: 0 hr 50 min 7 sec) 
Heartbeat CPU 0 instructions: 80000002 cycles: 69578820 heartbeat IPC: 0.587008 cumulative IPC: 0.583401 (Simulation time: 0 hr 57 min 48 sec) 
Heartbeat CPU 0 instructions: 90000000 cycles: 86697368 heartbeat IPC: 0.584162 cumulative IPC: 0.583591 (Simulation time: 1 hr 4 min 2 sec) 
Heartbeat CPU 0 instructions: 100000001 cycles: 103771626 heartbeat IPC: 0.585677 cumulative IPC: 0.584007 (Simulation time: 1 hr 11 min 1 sec) 
Heartbeat CPU 0 instructions: 110000000 cycles: 120729578 heartbeat IPC: 0.589694 cumulative IPC: 0.584947 (Simulation time: 1 hr 18 min 52 sec) 
Heartbeat CPU 0 instructions: 120000001 cycles: 137447044 heartbeat IPC: 0.598177 cumulative IPC: 0.586801 (Simulation time: 1 hr 26 min 39 sec) 
Heartbeat CPU 0 instructions: 130000000 cycles: 154218164 heartbeat IPC: 0.596263 cumulative IPC: 0.587967 (Simulation time: 1 hr 34 min 1 sec) 
Heartbeat CPU 0 instructions: 140000001 cycles: 170956362 heartbeat IPC: 0.597436 cumulative IPC: 0.589005 (Simulation time: 1 hr 41 min 21 sec) 
Heartbeat CPU 0 instructions: 150000000 cycles: 187431134 heartbeat IPC: 0.606989 cumulative IPC: 0.590755 (Simulation time: 1 hr 48 min 39 sec) 
Heartbeat CPU 0 instructions: 160000002 cycles: 203956206 heartbeat IPC: 0.605141 cumulative IPC: 0.592034 (Simulation time: 1 hr 55 min 15 sec) 
Heartbeat CPU 0 instructions: 170000001 cycles: 220439214 heartbeat IPC: 0.606685 cumulative IPC: 0.593228 (Simulation time: 2 hr 0 min 50 sec) 
Heartbeat CPU 0 instructions: 180000000 cycles: 236943288 heartbeat IPC: 0.605911 cumulative IPC: 0.594185 (Simulation time: 2 hr 6 min 42 sec) 
Heartbeat CPU 0 instructions: 190000003 cycles: 253487970 heartbeat IPC: 0.604424 cumulative IPC: 0.594905 (Simulation time: 2 hr 13 min 52 sec) 
Heartbeat CPU 0 instructions: 200000000 cycles: 269987261 heartbeat IPC: 0.606086 cumulative IPC: 0.595637 (Simulation time: 2 hr 20 min 43 sec) 
Heartbeat CPU 0 instructions: 210000001 cycles: 286306960 heartbeat IPC: 0.612756 cumulative IPC: 0.596679 (Simulation time: 2 hr 27 min 49 sec) 
Heartbeat CPU 0 instructions: 220000000 cycles: 302537126 heartbeat IPC: 0.616137 cumulative IPC: 0.59779 (Simulation time: 2 hr 33 min 7 sec) 
Heartbeat CPU 0 instructions: 230000001 cycles: 318898929 heartbeat IPC: 0.61118 cumulative IPC: 0.598518 (Simulation time: 2 hr 39 min 8 sec) 
Heartbeat CPU 0 instructions: 240000001 cycles: 335338922 heartbeat IPC: 0.608273 cumulative IPC: 0.599024 (Simulation time: 2 hr 46 min 46 sec) 
Heartbeat CPU 0 instructions: 250000002 cycles: 351826629 heartbeat IPC: 0.606513 cumulative IPC: 0.599394 (Simulation time: 2 hr 54 min 6 sec) 
Finished CPU 0 instructions: 200000000 cycles: 333670432 cumulative IPC: 0.599394 (Simulation time: 2 hr 54 min 6 sec) 

ChampSim completed all CPUs

Region of Interest Statistics

CPU 0 cumulative IPC: 0.599394 instructions: 200000000 cycles: 333670432
ITLB TOTAL     ACCESS:   32164686  HIT:   32164686  MISS:          0  HIT %:        100  MISS %:          0   MPKI: 0
ITLB LOAD TRANSLATION ACCESS:   32164686  HIT:   32164686  MISS:          0  HIT %:        100  MISS %:          0   MPKI: 0
ITLB PREFETCH  REQUESTED:          0  ISSUED:          0  USEFUL:          0  USELESS:          0
ITLB USEFUL LOAD PREFETCHES:          0 PREFETCH ISSUED TO LOWER LEVEL:          0  ACCURACY: -nan
ITLB TIMELY PREFETCHES:          0 LATE PREFETCHES: 0 DROPPED PREFETCHES: 0
ITLB PREFETCHES SAME FILL-ORIGIN LEVEL: 0 DIFFERENT FILL-ORIGIN LEVEL: 0
ITLB AVERAGE MISS LATENCY: -nan cycles
ITLB RQ	ACCESS:   41087581	FORWARD:          0	MERGED:    8922896	TO_CACHE:   32164685

DTLB TOTAL     ACCESS:   31103490  HIT:   31091204  MISS:      12286  HIT %:    99.9605  MISS %:  0.0395004   MPKI: 0.06143
DTLB LOAD TRANSLATION ACCESS:   31103490  HIT:   31091204  MISS:      12286  HIT %:    99.9605  MISS %:  0.0395004   MPKI: 0.06143
DTLB PREFETCH  REQUESTED:          0  ISSUED:          0  USEFUL:          0  USELESS:          0
DTLB USEFUL LOAD PREFETCHES:          0 PREFETCH ISSUED TO LOWER LEVEL:          0  ACCURACY: -nan
DTLB TIMELY PREFETCHES:          0 LATE PREFETCHES: 0 DROPPED PREFETCHES: 0
DTLB PREFETCHES SAME FILL-ORIGIN LEVEL: 0 DIFFERENT FILL-ORIGIN LEVEL: 0
DTLB AVERAGE MISS LATENCY: 11.6746 cycles
DTLB RQ	ACCESS:   33805790	FORWARD:          0	MERGED:    2701761	TO_CACHE:   31104029

STLB TOTAL     ACCESS:      81091  HIT:      80868  MISS:        223  HIT %:     99.725  MISS %:      0.275   MPKI: 0.001115
STLB LOAD TRANSLATION ACCESS:      12286  HIT:      12063  MISS:        223  HIT %:    98.1849  MISS %:    1.81507   MPKI: 0.001115
STLB TRANSLATION FROM L1D PREFETCHER ACCESS:      68805  HIT:      68805  MISS:          0  HIT %:        100  MISS %:          0   MPKI: 0
STLB PREFETCH  REQUESTED:          0  ISSUED:          0  USEFUL:          0  USELESS:          0
STLB USEFUL LOAD PREFETCHES:          0 PREFETCH ISSUED TO LOWER LEVEL:          0  ACCURACY: -nan
STLB TIMELY PREFETCHES:          0 LATE PREFETCHES: 1 DROPPED PREFETCHES: 28590
STLB PREFETCHES SAME FILL-ORIGIN LEVEL: 0 DIFFERENT FILL-ORIGIN LEVEL: 0
STLB AVERAGE MISS LATENCY: 145.843 cycles
STLB RQ	ACCESS:     192145	FORWARD:          0	MERGED:      82440	TO_CACHE:     109705

STLB Hit, L1D data hit: 0
STLB Hit, L2C data hit: 0
STLB Hit, LLC data hit: 0
STLB Hit, LLC data miss: 0
STLB STLB hints to L2: 0
L1D TOTAL     ACCESS:   33849466  HIT:   33843823  MISS:       5643  HIT %:    99.9833  MISS %:  0.0166709   MPKI: 0.028215
L1D LOAD      ACCESS:   26341759  HIT:   26340204  MISS:       1555  HIT %:    99.9941  MISS %: 0.00590317   MPKI: 0.007775
L1D RFO       ACCESS:    7459722  HIT:    7456351  MISS:       3371  HIT %:    99.9548  MISS %:  0.0451894   MPKI: 0.016855
L1D PREFETCH  ACCESS:      47985  HIT:      47268  MISS:        717  HIT %:    98.5058  MISS %:    1.49422   MPKI: 0.003585
L1D PREFETCH  REQUESTED:     360025  ISSUED:     360025  USEFUL:        635  USELESS:         91
L1D USEFUL LOAD PREFETCHES:        635 PREFETCH ISSUED TO LOWER LEVEL:      93682  ACCURACY: 0.677825
L1D TIMELY PREFETCHES:        635 LATE PREFETCHES: 55 DROPPED PREFETCHES: 38711
L1D PREFETCHES SAME FILL-ORIGIN LEVEL: 772 DIFFERENT FILL-ORIGIN LEVEL: 92910
L1D AVERAGE MISS LATENCY: 166.609 cycles
L1D RQ	ACCESS:   33044639	FORWARD:          0	MERGED:    6430903	TO_CACHE:   26342723
L1D WQ	ACCESS:    7464969	FORWARD:     271014	MERGED:       1902	TO_CACHE:    7463067
L1D PQ	ACCESS:     180166	FORWARD:          0	MERGED:        306	TO_CACHE:     179859

L1D UNIQUE REGIONS ACCESSED: 0
L1D REGIONS CONFLICTS: 0
L1D Cross Page Prefetch Requests: 38818
L1D Same Page Prefetch Requests: 196993
L1D ROI Sum of L1D PQ occupancy: 3115520
L1D PREFETCHES PUSHED FROM L2C: 0
L1I TOTAL     ACCESS:   41086923  HIT:   41085451  MISS:       1472  HIT %:    99.9964  MISS %: 0.00358265   MPKI: 0.00736
L1I LOAD      ACCESS:   41086923  HIT:   41085451  MISS:       1472  HIT %:    99.9964  MISS %: 0.00358265   MPKI: 0.00736
L1I PREFETCH  REQUESTED:          0  ISSUED:          0  USEFUL:          0  USELESS:          0
L1I USEFUL LOAD PREFETCHES:          0 PREFETCH ISSUED TO LOWER LEVEL:          0  ACCURACY: -nan
L1I TIMELY PREFETCHES:          0 LATE PREFETCHES: 0 DROPPED PREFETCHES: 0
L1I PREFETCHES SAME FILL-ORIGIN LEVEL: 0 DIFFERENT FILL-ORIGIN LEVEL: 0
L1I AVERAGE MISS LATENCY: 14.0965 cycles
L1I RQ	ACCESS:   56991536	FORWARD:          0	MERGED:   15903955	TO_CACHE:   41087581

BTB TOTAL     ACCESS:   16051402  HIT:   14487433  MISS:    1563969  HIT %:    90.2565  MISS %:     9.7435   MPKI: 7.81984
BTB BRANCH_DIRECT_JUMP	ACCESS:    1796498  HIT:    1796468  MISS:         30
BTB BRANCH_INDIRECT	ACCESS:          0  HIT:          0  MISS:          0
BTB BRANCH_CONDITIONAL	ACCESS:    9861101  HIT:    9860989  MISS:        112
BTB BRANCH_DIRECT_CALL	ACCESS:    2196902  HIT:    2196697  MISS:        205
BTB BRANCH_INDIRECT_CALL	ACCESS:          0  HIT:          0  MISS:          0
BTB BRANCH_RETURN	ACCESS:    2196901  HIT:     633279  MISS:    1563622
BTB BRANCH_OTHER ACCESS:          0  HIT:          0  MISS:          0

L2C TOTAL     ACCESS:     132382  HIT:     126599  MISS:       5783  HIT %:    95.6316  MISS %:    4.36842   MPKI: 0.028915
L2C LOAD      ACCESS:       2972  HIT:       1782  MISS:       1190  HIT %:    59.9596  MISS %:    40.0404   MPKI: 0.00595
L2C DATA LOAD MPKI: 0.00593
L2C INSTRUCTION LOAD MPKI: 2e-05
L2C RFO       ACCESS:       3371  HIT:         88  MISS:       3283  HIT %:     2.6105  MISS %:    97.3895   MPKI: 0.016415
L2C PREFETCH  ACCESS:      93207  HIT:      91949  MISS:       1258  HIT %:    98.6503  MISS %:    1.34968   MPKI: 0.00629
L2C DATA PREFETCH MPKI: 0.00629
L2C INSTRUCTION PREFETCH MPKI: 0
L2C WRITEBACK ACCESS:       4018  HIT:       4015  MISS:          3  HIT %:    99.9253  MISS %:   0.074664   MPKI: 1.5e-05
L2C LOAD TRANSLATION ACCESS:        223  HIT:        198  MISS:         25  HIT %:    88.7892  MISS %:    11.2108   MPKI: 0.000125
L2C TRANSLATION FROM L1D PREFETCHER ACCESS:      28591  HIT:      28567  MISS:         24  HIT %:    99.9161  MISS %:  0.0839425   MPKI: 0.00012
L2C PREFETCH  REQUESTED:          0  ISSUED:          0  USEFUL:        318  USELESS:         53
L2C USEFUL LOAD PREFETCHES:        318 PREFETCH ISSUED TO LOWER LEVEL:       1346  ACCURACY: 23.6256
L2C TIMELY PREFETCHES:        318 LATE PREFETCHES: 88 DROPPED PREFETCHES: 0
L2C PREFETCHES SAME FILL-ORIGIN LEVEL: 1167 DIFFERENT FILL-ORIGIN LEVEL: 0
L2C AVERAGE MISS LATENCY: 184.691 cycles
L2C RQ	ACCESS:      35157	FORWARD:          0	MERGED:          0	TO_CACHE:      35157
L2C WQ	ACCESS:       4018	FORWARD:          0	MERGED:          0	TO_CACHE:       4018
L2C PQ	ACCESS:      93682	FORWARD:          0	MERGED:          0	TO_CACHE:      93682

L2C Instructions Evicting Data 2
L2C Translations Evicting Data 3
L2C Data Evicting Data 380
L2C Instructions Evicting Instructions 2
L2C Translations Evicting Instructions 4
L2C Data Evicting Instructions 169
L2C Instructions Evicting Translations 0
L2C Translations Evicting Translations 0
L2C Data Evicting Translations 10
L2C Dense regions hint from L2: 0
PSCL5 TOTAL     ACCESS:      28814  HIT:      28814  MISS:          0  HIT %:        100  MISS %:          0   MPKI: 0
PSCL5 LOAD TRANSLATION ACCESS:        223  HIT:        223  MISS:          0  HIT %:        100  MISS %:          0   MPKI: 0
PSCL5 TRANSLATION FROM L1D PREFETCHER ACCESS:      28591  HIT:      28591  MISS:          0  HIT %:        100  MISS %:          0   MPKI: 0
PSCL5 PREFETCH  REQUESTED:          0  ISSUED:          0  USEFUL:          0  USELESS:          0
PSCL5 USEFUL LOAD PREFETCHES:          0 PREFETCH ISSUED TO LOWER LEVEL:          0  ACCURACY: -nan
PSCL5 TIMELY PREFETCHES:          0 LATE PREFETCHES: 0 DROPPED PREFETCHES: 0
PSCL5 PREFETCHES SAME FILL-ORIGIN LEVEL: 0 DIFFERENT FILL-ORIGIN LEVEL: 0

PSCL4 TOTAL     ACCESS:      28814  HIT:      28814  MISS:          0  HIT %:        100  MISS %:          0   MPKI: 0
PSCL4 LOAD TRANSLATION ACCESS:        223  HIT:        223  MISS:          0  HIT %:        100  MISS %:          0   MPKI: 0
PSCL4 TRANSLATION FROM L1D PREFETCHER ACCESS:      28591  HIT:      28591  MISS:          0  HIT %:        100  MISS %:          0   MPKI: 0
PSCL4 PREFETCH  REQUESTED:          0  ISSUED:          0  USEFUL:          0  USELESS:          0
PSCL4 USEFUL LOAD PREFETCHES:          0 PREFETCH ISSUED TO LOWER LEVEL:          0  ACCURACY: -nan
PSCL4 TIMELY PREFETCHES:          0 LATE PREFETCHES: 0 DROPPED PREFETCHES: 0
PSCL4 PREFETCHES SAME FILL-ORIGIN LEVEL: 0 DIFFERENT FILL-ORIGIN LEVEL: 0

PSCL3 TOTAL     ACCESS:      28814  HIT:      28814  MISS:          0  HIT %:        100  MISS %:          0   MPKI: 0
PSCL3 LOAD TRANSLATION ACCESS:        223  HIT:        223  MISS:          0  HIT %:        100  MISS %:          0   MPKI: 0
PSCL3 TRANSLATION FROM L1D PREFETCHER ACCESS:      28591  HIT:      28591  MISS:          0  HIT %:        100  MISS %:          0   MPKI: 0
PSCL3 PREFETCH  REQUESTED:          0  ISSUED:          0  USEFUL:          0  USELESS:          0
PSCL3 USEFUL LOAD PREFETCHES:          0 PREFETCH ISSUED TO LOWER LEVEL:          0  ACCURACY: -nan
PSCL3 TIMELY PREFETCHES:          0 LATE PREFETCHES: 0 DROPPED PREFETCHES: 0
PSCL3 PREFETCHES SAME FILL-ORIGIN LEVEL: 0 DIFFERENT FILL-ORIGIN LEVEL: 0

PSCL2 TOTAL     ACCESS:      28813  HIT:      28812  MISS:          1  HIT %:    99.9965  MISS %: 0.00347066   MPKI: 5e-06
PSCL2 LOAD TRANSLATION ACCESS:        223  HIT:        222  MISS:          1  HIT %:    99.5516  MISS %:    0.44843   MPKI: 5e-06
PSCL2 TRANSLATION FROM L1D PREFETCHER ACCESS:      28590  HIT:      28590  MISS:          0  HIT %:        100  MISS %:          0   MPKI: 0
PSCL2 PREFETCH  REQUESTED:          0  ISSUED:          0  USEFUL:          0  USELESS:          0
PSCL2 USEFUL LOAD PREFETCHES:          0 PREFETCH ISSUED TO LOWER LEVEL:          0  ACCURACY: -nan
PSCL2 TIMELY PREFETCHES:          0 LATE PREFETCHES: 0 DROPPED PREFETCHES: 0
PSCL2 PREFETCHES SAME FILL-ORIGIN LEVEL: 0 DIFFERENT FILL-ORIGIN LEVEL: 0

LLC TOTAL     ACCESS:       5795  HIT:         20  MISS:       5775  HIT %:   0.345125  MISS %:    99.6549   MPKI: 0.028875
LLC LOAD      ACCESS:       1102  HIT:          5  MISS:       1097  HIT %:   0.453721  MISS %:    99.5463   MPKI: 0.005485
LLC RFO       ACCESS:       3283  HIT:          0  MISS:       3283  HIT %:          0  MISS %:        100   MPKI: 0.016415
LLC PREFETCH  ACCESS:       1346  HIT:          0  MISS:       1346  HIT %:          0  MISS %:        100   MPKI: 0.00673
LLC WRITEBACK ACCESS:         15  HIT:         15  MISS:          0  HIT %:        100  MISS %:          0   MPKI: 0
LLC LOAD TRANSLATION ACCESS:         25  HIT:          0  MISS:         25  HIT %:          0  MISS %:        100   MPKI: 0.000125
LLC TRANSLATION FROM L1D PREFETCHER ACCESS:         24  HIT:          0  MISS:         24  HIT %:          0  MISS %:        100   MPKI: 0.00012
LLC PREFETCH  REQUESTED:          0  ISSUED:          0  USEFUL:          0  USELESS:         11
LLC USEFUL LOAD PREFETCHES:          0 PREFETCH ISSUED TO LOWER LEVEL:       1346  ACCURACY: 0
LLC TIMELY PREFETCHES:          0 LATE PREFETCHES: 0 DROPPED PREFETCHES: 0
LLC PREFETCHES SAME FILL-ORIGIN LEVEL: 0 DIFFERENT FILL-ORIGIN LEVEL: 0
LLC AVERAGE MISS LATENCY: 153.885 cycles
LLC RQ	ACCESS:       4434	FORWARD:          0	MERGED:          0	TO_CACHE:       4434
LLC WQ	ACCESS:         15	FORWARD:          0	MERGED:          0	TO_CACHE:         15
LLC PQ	ACCESS:       1346	FORWARD:          0	MERGED:          0	TO_CACHE:       1346

LLC Dense regions hint to LLC: 0

RAW hits: 488095
Loads Generated: 33532734
Loads sent to L1D: 33044639
Stores Generated: 7464969
Stores sent to L1D: 7464969
Major fault: 0 Minor fault: 395
Allocated PAGES: 395

DRAM Statistics
 CHANNEL 0
 RQ ROW_BUFFER_HIT:       1296  ROW_BUFFER_MISS:       4479
 DBUS_CONGESTED:          0
 WQ ROW_BUFFER_HIT:          0  ROW_BUFFER_MISS:          0  FULL:          0

 AVG_CONGESTED_CYCLE: -
 All warmup complete: 2
Channel 0 Bank busy for read cycles: 0
Channel 0 Bank busy for write cycles: 0
Channel 0
Rank 0
0banks busy for read cycles: 333223177
0banks busy for write cycles: 0
1banks busy for read cycles: 302394
1banks busy for write cycles: 0
2banks busy for read cycles: 82537
2banks busy for write cycles: 0
3banks busy for read cycles: 28132
3banks busy for write cycles: 0
4banks busy for read cycles: 9968
4banks busy for write cycles: 0
5banks busy for read cycles: 10822
5banks busy for write cycles: 0
6banks busy for read cycles: 6733
6banks busy for write cycles: 0
7banks busy for read cycles: 2945
7banks busy for write cycles: 0
8banks busy for read cycles: 3725
8banks busy for write cycles: 0

CPU 0 Branch Prediction Accuracy: 99.8101% MPKI: 0.1957 Average ROB Occupancy at Mispredict: 55.5834
Branch types
NOT_BRANCH: 173193955 86.597%
BRANCH_DIRECT_JUMP: 1796498 0.898249%
BRANCH_INDIRECT: 0 0%
BRANCH_CONDITIONAL: 20615493 10.3077%
BRANCH_DIRECT_CALL: 2196902 1.09845%
BRANCH_INDIRECT_CALL: 0 0%
BRANCH_RETURN: 2196901 1.09845%
BRANCH_OTHER: 0 0%

DRAM PAGES: 1048576
Allocated PAGES: 395
