 (TOTAL 67349)
 
*** ChampSim Multicore Out-of-Order Simulator ***

Warmup Instructions: 50000000
Simulation Instructions: 200000000
Number of CPUs: 1
LLC sets: 2048
LLC ways: 16
Off-chip DRAM Size: 4096 MB Channels: 1 Width: 64-bit Data Rate: 6400 MT/s
argv[0]: ./ChampSim/Berti/bin/tagescl8kb-no-vberti-no-no-no-no-no-lru-lru-lru-srrip-drrip-lru-lru-lru-1core-no
argv[1]: -warmup_instructions
argv[2]: 50000000
argv[3]: -simulation_instructions
argv[4]: 200000000
argv[5]: -traces
argv[6]: traces/spec2k17_ten/648.exchange2_s-1511B.champsimtrace.xz
CPU 0 runs traces/spec2k17_ten/648.exchange2_s-1511B.champsimtrace.xz
.xz
CPU 0 Tage branch predictor
BTB has LRU replacement policy
ITLB has LRU replacement policy
DTLB has LRU replacement policy
STLB has LRU replacement policy
L1I has LRU replacement policy
History Sets: 8
History Ways: 16
BERTI Size: 16
BERTI Stride Size: 16
L1D has LRU replacement policy
Initialize SRRIP state for L2C
Initialize DRRIP state for LLC
Heartbeat CPU 0 instructions: 10000003 cycles: 2679520 heartbeat IPC: 3.73201 cumulative IPC: 3.73201 (Simulation time: 0 hr 2 min 19 sec) 
Heartbeat CPU 0 instructions: 20000002 cycles: 5353618 heartbeat IPC: 3.73958 cumulative IPC: 3.73579 (Simulation time: 0 hr 8 min 37 sec) 
Heartbeat CPU 0 instructions: 30000002 cycles: 8013936 heartbeat IPC: 3.75895 cumulative IPC: 3.74348 (Simulation time: 0 hr 10 min 43 sec) 
Heartbeat CPU 0 instructions: 40000001 cycles: 10676119 heartbeat IPC: 3.75632 cumulative IPC: 3.74668 (Simulation time: 0 hr 11 min 37 sec) 
Heartbeat CPU 0 instructions: 50000000 cycles: 13344976 heartbeat IPC: 3.74692 cumulative IPC: 3.74673 (Simulation time: 0 hr 12 min 49 sec) 

Warmup complete CPU 0 instructions: 50000004 cycles: 13344977 (Simulation time: 0 hr 12 min 49 sec) 

Heartbeat CPU 0 instructions: 60000000 cycles: 22531136 heartbeat IPC: 1.08859 cumulative IPC: 1.08859 (Simulation time: 0 hr 14 min 22 sec) 
Heartbeat CPU 0 instructions: 70000001 cycles: 31834340 heartbeat IPC: 1.0749 cumulative IPC: 1.0817 (Simulation time: 0 hr 16 min 37 sec) 
Heartbeat CPU 0 instructions: 80000000 cycles: 42660122 heartbeat IPC: 0.923721 cumulative IPC: 1.02336 (Simulation time: 0 hr 19 min 22 sec) 
Heartbeat CPU 0 instructions: 90000003 cycles: 52732395 heartbeat IPC: 0.992825 cumulative IPC: 1.01555 (Simulation time: 0 hr 21 min 56 sec) 
Heartbeat CPU 0 instructions: 100000000 cycles: 62686087 heartbeat IPC: 1.00465 cumulative IPC: 1.01335 (Simulation time: 0 hr 24 min 24 sec) 
Heartbeat CPU 0 instructions: 110000000 cycles: 72616950 heartbeat IPC: 1.00696 cumulative IPC: 1.01228 (Simulation time: 0 hr 26 min 55 sec) 
Heartbeat CPU 0 instructions: 120000001 cycles: 82540657 heartbeat IPC: 1.00769 cumulative IPC: 1.01162 (Simulation time: 0 hr 31 min 51 sec) 
Heartbeat CPU 0 instructions: 130000000 cycles: 91650741 heartbeat IPC: 1.09768 cumulative IPC: 1.02164 (Simulation time: 0 hr 35 min 25 sec) 
Heartbeat CPU 0 instructions: 140000002 cycles: 100851276 heartbeat IPC: 1.08689 cumulative IPC: 1.0285 (Simulation time: 0 hr 38 min 8 sec) 
Heartbeat CPU 0 instructions: 150000003 cycles: 111563534 heartbeat IPC: 0.93351 cumulative IPC: 1.01814 (Simulation time: 0 hr 42 min 20 sec) 
Heartbeat CPU 0 instructions: 160000003 cycles: 120638397 heartbeat IPC: 1.10195 cumulative IPC: 1.02523 (Simulation time: 0 hr 43 min 44 sec) 
Heartbeat CPU 0 instructions: 170000001 cycles: 129875838 heartbeat IPC: 1.08255 cumulative IPC: 1.02977 (Simulation time: 0 hr 45 min 42 sec) 
Heartbeat CPU 0 instructions: 180000000 cycles: 139025694 heartbeat IPC: 1.09291 cumulative IPC: 1.03437 (Simulation time: 0 hr 47 min 22 sec) 
Heartbeat CPU 0 instructions: 190000000 cycles: 148213586 heartbeat IPC: 1.08839 cumulative IPC: 1.03805 (Simulation time: 0 hr 49 min 4 sec) 
Heartbeat CPU 0 instructions: 200000000 cycles: 157411996 heartbeat IPC: 1.08714 cumulative IPC: 1.04118 (Simulation time: 0 hr 50 min 45 sec) 
Heartbeat CPU 0 instructions: 210000000 cycles: 166583139 heartbeat IPC: 1.09038 cumulative IPC: 1.04413 (Simulation time: 0 hr 53 min 9 sec) 
Heartbeat CPU 0 instructions: 220000000 cycles: 176532629 heartbeat IPC: 1.00508 cumulative IPC: 1.04175 (Simulation time: 0 hr 54 min 37 sec) 
Heartbeat CPU 0 instructions: 230000002 cycles: 185571090 heartbeat IPC: 1.10638 cumulative IPC: 1.04514 (Simulation time: 0 hr 57 min 4 sec) 
Heartbeat CPU 0 instructions: 240000000 cycles: 194775617 heartbeat IPC: 1.08642 cumulative IPC: 1.04723 (Simulation time: 0 hr 59 min 1 sec) 
Heartbeat CPU 0 instructions: 250000002 cycles: 203938886 heartbeat IPC: 1.09131 cumulative IPC: 1.04935 (Simulation time: 1 hr 1 min 32 sec) 
Finished CPU 0 instructions: 200000002 cycles: 190593910 cumulative IPC: 1.04935 (Simulation time: 1 hr 1 min 32 sec) 

ChampSim completed all CPUs

Region of Interest Statistics

CPU 0 cumulative IPC: 1.04935 instructions: 200000002 cycles: 190593910
ITLB TOTAL     ACCESS:   30151266  HIT:   30151242  MISS:         24  HIT %:    99.9999  MISS %: 7.95986e-05   MPKI: 0.00012
ITLB LOAD TRANSLATION ACCESS:   30151266  HIT:   30151242  MISS:         24  HIT %:    99.9999  MISS %: 7.95986e-05   MPKI: 0.00012
ITLB PREFETCH  REQUESTED:          0  ISSUED:          0  USEFUL:          0  USELESS:          0
ITLB USEFUL LOAD PREFETCHES:          0 PREFETCH ISSUED TO LOWER LEVEL:          0  ACCURACY: -nan
ITLB TIMELY PREFETCHES:          0 LATE PREFETCHES: 0 DROPPED PREFETCHES: 0
ITLB PREFETCHES SAME FILL-ORIGIN LEVEL: 0 DIFFERENT FILL-ORIGIN LEVEL: 0
ITLB AVERAGE MISS LATENCY: 157 cycles
ITLB RQ	ACCESS:   36933138	FORWARD:          0	MERGED:    6781867	TO_CACHE:   30151271

DTLB TOTAL     ACCESS:   33168779  HIT:   33168764  MISS:         15  HIT %:        100  MISS %: 4.52233e-05   MPKI: 7.5e-05
DTLB LOAD TRANSLATION ACCESS:   33168779  HIT:   33168764  MISS:         15  HIT %:        100  MISS %: 4.52233e-05   MPKI: 7.5e-05
DTLB PREFETCH  REQUESTED:          0  ISSUED:          0  USEFUL:          0  USELESS:          0
DTLB USEFUL LOAD PREFETCHES:          0 PREFETCH ISSUED TO LOWER LEVEL:          0  ACCURACY: -nan
DTLB TIMELY PREFETCHES:          0 LATE PREFETCHES: 0 DROPPED PREFETCHES: 0
DTLB PREFETCHES SAME FILL-ORIGIN LEVEL: 0 DIFFERENT FILL-ORIGIN LEVEL: 0
DTLB AVERAGE MISS LATENCY: 173.2 cycles
DTLB RQ	ACCESS:   53461783	FORWARD:          0	MERGED:   20293003	TO_CACHE:   33168780

STLB TOTAL     ACCESS:         58  HIT:         19  MISS:         39  HIT %:    32.7586  MISS %:    67.2414   MPKI: 0.000195
STLB LOAD TRANSLATION ACCESS:         39  HIT:          0  MISS:         39  HIT %:          0  MISS %:        100   MPKI: 0.000195
STLB TRANSLATION FROM L1D PREFETCHER ACCESS:         19  HIT:         19  MISS:          0  HIT %:        100  MISS %:          0   MPKI: 0
STLB PREFETCH  REQUESTED:          0  ISSUED:          0  USEFUL:          0  USELESS:          0
STLB USEFUL LOAD PREFETCHES:          0 PREFETCH ISSUED TO LOWER LEVEL:          0  ACCURACY: -nan
STLB TIMELY PREFETCHES:          0 LATE PREFETCHES: 0 DROPPED PREFETCHES: 0
STLB PREFETCHES SAME FILL-ORIGIN LEVEL: 0 DIFFERENT FILL-ORIGIN LEVEL: 0
STLB AVERAGE MISS LATENCY: 151.718 cycles
STLB RQ	ACCESS:         58	FORWARD:          0	MERGED:          0	TO_CACHE:         58

STLB Hit, L1D data hit: 0
STLB Hit, L2C data hit: 0
STLB Hit, LLC data hit: 0
STLB Hit, LLC data miss: 0
STLB STLB hints to L2: 0
L1D TOTAL     ACCESS:   53461246  HIT:   53461104  MISS:        142  HIT %:    99.9997  MISS %: 0.000265613   MPKI: 0.00071
L1D LOAD      ACCESS:   23996261  HIT:   23996191  MISS:         70  HIT %:    99.9997  MISS %: 0.000291712   MPKI: 0.00035
L1D RFO       ACCESS:   29464969  HIT:   29464897  MISS:         72  HIT %:    99.9998  MISS %: 0.000244358   MPKI: 0.00036
L1D PREFETCH  ACCESS:         16  HIT:         16  MISS:          0  HIT %:        100  MISS %:          0   MPKI: 0
L1D PREFETCH  REQUESTED:         38  ISSUED:         38  USEFUL:          0  USELESS:          0
L1D USEFUL LOAD PREFETCHES:          0 PREFETCH ISSUED TO LOWER LEVEL:          3  ACCURACY: 0
L1D TIMELY PREFETCHES:          0 LATE PREFETCHES: 0 DROPPED PREFETCHES: 0
L1D PREFETCHES SAME FILL-ORIGIN LEVEL: 0 DIFFERENT FILL-ORIGIN LEVEL: 3
L1D AVERAGE MISS LATENCY: 172.676 cycles
L1D RQ	ACCESS:   40079840	FORWARD:          0	MERGED:   15880998	TO_CACHE:   23996274
L1D WQ	ACCESS:   32495752	FORWARD:     202568	MERGED:    3030243	TO_CACHE:   29465509
L1D PQ	ACCESS:         19	FORWARD:          0	MERGED:          0	TO_CACHE:         19

L1D UNIQUE REGIONS ACCESSED: 0
L1D REGIONS CONFLICTS: 0
L1D Cross Page Prefetch Requests: 0
L1D Same Page Prefetch Requests: 19
L1D ROI Sum of L1D PQ occupancy: 247
L1D PREFETCHES PUSHED FROM L2C: 0
L1I TOTAL     ACCESS:   36928497  HIT:   36918503  MISS:       9994  HIT %:    99.9729  MISS %:  0.0270631   MPKI: 0.04997
L1I LOAD      ACCESS:   36928497  HIT:   36918503  MISS:       9994  HIT %:    99.9729  MISS %:  0.0270631   MPKI: 0.04997
L1I PREFETCH  REQUESTED:          0  ISSUED:          0  USEFUL:          0  USELESS:          0
L1I USEFUL LOAD PREFETCHES:          0 PREFETCH ISSUED TO LOWER LEVEL:          0  ACCURACY: -nan
L1I TIMELY PREFETCHES:          0 LATE PREFETCHES: 0 DROPPED PREFETCHES: 0
L1I PREFETCHES SAME FILL-ORIGIN LEVEL: 0 DIFFERENT FILL-ORIGIN LEVEL: 0
L1I AVERAGE MISS LATENCY: 25.4491 cycles
L1I RQ	ACCESS:   54614230	FORWARD:          0	MERGED:   17681092	TO_CACHE:   36933138

BTB TOTAL     ACCESS:   25014953  HIT:   25000544  MISS:      14409  HIT %:    99.9424  MISS %:  0.0576015   MPKI: 0.072045
BTB BRANCH_DIRECT_JUMP	ACCESS:    2078632  HIT:    2078510  MISS:        122
BTB BRANCH_INDIRECT	ACCESS:          0  HIT:          0  MISS:          0
BTB BRANCH_CONDITIONAL	ACCESS:   22835853  HIT:   22835083  MISS:        770
BTB BRANCH_DIRECT_CALL	ACCESS:      50234  HIT:      50150  MISS:         84
BTB BRANCH_INDIRECT_CALL	ACCESS:          0  HIT:          0  MISS:          0
BTB BRANCH_RETURN	ACCESS:      50234  HIT:      36801  MISS:      13433
BTB BRANCH_OTHER ACCESS:          0  HIT:          0  MISS:          0

L2C TOTAL     ACCESS:      10178  HIT:       9042  MISS:       1136  HIT %:    88.8387  MISS %:    11.1613   MPKI: 0.00568
L2C LOAD      ACCESS:      10064  HIT:       9011  MISS:       1053  HIT %:     89.537  MISS %:     10.463   MPKI: 0.005265
L2C DATA LOAD MPKI: 0.00034
L2C INSTRUCTION LOAD MPKI: 0.004925
L2C RFO       ACCESS:         72  HIT:          0  MISS:         72  HIT %:          0  MISS %:        100   MPKI: 0.00036
L2C PREFETCH  ACCESS:          3  HIT:          0  MISS:          3  HIT %:          0  MISS %:        100   MPKI: 1.5e-05
L2C DATA PREFETCH MPKI: 1.5e-05
L2C INSTRUCTION PREFETCH MPKI: 0
L2C LOAD TRANSLATION ACCESS:         39  HIT:         31  MISS:          8  HIT %:    79.4872  MISS %:    20.5128   MPKI: 4e-05
L2C PREFETCH  REQUESTED:          0  ISSUED:          0  USEFUL:          2  USELESS:          0
L2C USEFUL LOAD PREFETCHES:          2 PREFETCH ISSUED TO LOWER LEVEL:          3  ACCURACY: 66.6667
L2C TIMELY PREFETCHES:          2 LATE PREFETCHES: 0 DROPPED PREFETCHES: 0
L2C PREFETCHES SAME FILL-ORIGIN LEVEL: 3 DIFFERENT FILL-ORIGIN LEVEL: 0
L2C AVERAGE MISS LATENCY: 121.619 cycles
L2C RQ	ACCESS:      10175	FORWARD:          0	MERGED:          0	TO_CACHE:      10175
L2C PQ	ACCESS:          3	FORWARD:          0	MERGED:          0	TO_CACHE:          3

L2C Instructions Evicting Data 0
L2C Translations Evicting Data 0
L2C Data Evicting Data 0
L2C Instructions Evicting Instructions 0
L2C Translations Evicting Instructions 0
L2C Data Evicting Instructions 0
L2C Instructions Evicting Translations 0
L2C Translations Evicting Translations 0
L2C Data Evicting Translations 0
L2C Dense regions hint from L2: 0
PSCL5 TOTAL     ACCESS:         39  HIT:         39  MISS:          0  HIT %:        100  MISS %:          0   MPKI: 0
PSCL5 LOAD TRANSLATION ACCESS:         39  HIT:         39  MISS:          0  HIT %:        100  MISS %:          0   MPKI: 0
PSCL5 PREFETCH  REQUESTED:          0  ISSUED:          0  USEFUL:          0  USELESS:          0
PSCL5 USEFUL LOAD PREFETCHES:          0 PREFETCH ISSUED TO LOWER LEVEL:          0  ACCURACY: -nan
PSCL5 TIMELY PREFETCHES:          0 LATE PREFETCHES: 0 DROPPED PREFETCHES: 0
PSCL5 PREFETCHES SAME FILL-ORIGIN LEVEL: 0 DIFFERENT FILL-ORIGIN LEVEL: 0

PSCL4 TOTAL     ACCESS:         39  HIT:         39  MISS:          0  HIT %:        100  MISS %:          0   MPKI: 0
PSCL4 LOAD TRANSLATION ACCESS:         39  HIT:         39  MISS:          0  HIT %:        100  MISS %:          0   MPKI: 0
PSCL4 PREFETCH  REQUESTED:          0  ISSUED:          0  USEFUL:          0  USELESS:          0
PSCL4 USEFUL LOAD PREFETCHES:          0 PREFETCH ISSUED TO LOWER LEVEL:          0  ACCURACY: -nan
PSCL4 TIMELY PREFETCHES:          0 LATE PREFETCHES: 0 DROPPED PREFETCHES: 0
PSCL4 PREFETCHES SAME FILL-ORIGIN LEVEL: 0 DIFFERENT FILL-ORIGIN LEVEL: 0

PSCL3 TOTAL     ACCESS:         39  HIT:         39  MISS:          0  HIT %:        100  MISS %:          0   MPKI: 0
PSCL3 LOAD TRANSLATION ACCESS:         39  HIT:         39  MISS:          0  HIT %:        100  MISS %:          0   MPKI: 0
PSCL3 PREFETCH  REQUESTED:          0  ISSUED:          0  USEFUL:          0  USELESS:          0
PSCL3 USEFUL LOAD PREFETCHES:          0 PREFETCH ISSUED TO LOWER LEVEL:          0  ACCURACY: -nan
PSCL3 TIMELY PREFETCHES:          0 LATE PREFETCHES: 0 DROPPED PREFETCHES: 0
PSCL3 PREFETCHES SAME FILL-ORIGIN LEVEL: 0 DIFFERENT FILL-ORIGIN LEVEL: 0

PSCL2 TOTAL     ACCESS:         39  HIT:         38  MISS:          1  HIT %:    97.4359  MISS %:     2.5641   MPKI: 5e-06
PSCL2 LOAD TRANSLATION ACCESS:         39  HIT:         38  MISS:          1  HIT %:    97.4359  MISS %:     2.5641   MPKI: 5e-06
PSCL2 PREFETCH  REQUESTED:          0  ISSUED:          0  USEFUL:          0  USELESS:          0
PSCL2 USEFUL LOAD PREFETCHES:          0 PREFETCH ISSUED TO LOWER LEVEL:          0  ACCURACY: -nan
PSCL2 TIMELY PREFETCHES:          0 LATE PREFETCHES: 0 DROPPED PREFETCHES: 0
PSCL2 PREFETCHES SAME FILL-ORIGIN LEVEL: 0 DIFFERENT FILL-ORIGIN LEVEL: 0

LLC TOTAL     ACCESS:       1136  HIT:          0  MISS:       1136  HIT %:          0  MISS %:        100   MPKI: 0.00568
LLC LOAD      ACCESS:       1053  HIT:          0  MISS:       1053  HIT %:          0  MISS %:        100   MPKI: 0.005265
LLC RFO       ACCESS:         72  HIT:          0  MISS:         72  HIT %:          0  MISS %:        100   MPKI: 0.00036
LLC PREFETCH  ACCESS:          3  HIT:          0  MISS:          3  HIT %:          0  MISS %:        100   MPKI: 1.5e-05
LLC LOAD TRANSLATION ACCESS:          8  HIT:          0  MISS:          8  HIT %:          0  MISS %:        100   MPKI: 4e-05
LLC PREFETCH  REQUESTED:          0  ISSUED:          0  USEFUL:          0  USELESS:          0
LLC USEFUL LOAD PREFETCHES:          0 PREFETCH ISSUED TO LOWER LEVEL:          3  ACCURACY: 0
LLC TIMELY PREFETCHES:          0 LATE PREFETCHES: 0 DROPPED PREFETCHES: 0
LLC PREFETCHES SAME FILL-ORIGIN LEVEL: 0 DIFFERENT FILL-ORIGIN LEVEL: 0
LLC AVERAGE MISS LATENCY: 91.257 cycles
LLC RQ	ACCESS:       1133	FORWARD:          0	MERGED:          0	TO_CACHE:       1133
LLC PQ	ACCESS:          3	FORWARD:          0	MERGED:          0	TO_CACHE:          3

LLC Dense regions hint to LLC: 0

RAW hits: 5993583
Loads Generated: 46073425
Loads sent to L1D: 40079840
Stores Generated: 32495726
Stores sent to L1D: 32495752
Major fault: 0 Minor fault: 60
Allocated PAGES: 60

DRAM Statistics
 CHANNEL 0
 RQ ROW_BUFFER_HIT:        902  ROW_BUFFER_MISS:        234
 DBUS_CONGESTED:          0
 WQ ROW_BUFFER_HIT:          0  ROW_BUFFER_MISS:          0  FULL:          0

 AVG_CONGESTED_CYCLE: -
 All warmup complete: 2
Channel 0 Bank busy for read cycles: 0
Channel 0 Bank busy for write cycles: 0
Channel 0
Rank 0
0banks busy for read cycles: 190532719
0banks busy for write cycles: 0
1banks busy for read cycles: 45991
1banks busy for write cycles: 0
2banks busy for read cycles: 12371
2banks busy for write cycles: 0
3banks busy for read cycles: 2072
3banks busy for write cycles: 0
4banks busy for read cycles: 539
4banks busy for write cycles: 0
5banks busy for read cycles: 219
5banks busy for write cycles: 0
6banks busy for read cycles: 0
6banks busy for write cycles: 0
7banks busy for read cycles: 0
7banks busy for write cycles: 0
8banks busy for read cycles: 0
8banks busy for write cycles: 0

CPU 0 Branch Prediction Accuracy: 98.9412% MPKI: 1.35678 Average ROB Occupancy at Mispredict: 28.5366
Branch types
NOT_BRANCH: 172191764 86.0959%
BRANCH_DIRECT_JUMP: 2078632 1.03932%
BRANCH_INDIRECT: 0 0%
BRANCH_CONDITIONAL: 25628835 12.8144%
BRANCH_DIRECT_CALL: 50234 0.025117%
BRANCH_INDIRECT_CALL: 0 0%
BRANCH_RETURN: 50234 0.025117%
BRANCH_OTHER: 0 0%

DRAM PAGES: 1048576
Allocated PAGES: 60
