 (TOTAL 67349)
 
*** ChampSim Multicore Out-of-Order Simulator ***

Warmup Instructions: 50000000
Simulation Instructions: 200000000
Number of CPUs: 1
LLC sets: 2048
LLC ways: 16
Off-chip DRAM Size: 4096 MB Channels: 1 Width: 64-bit Data Rate: 6400 MT/s
argv[0]: ./ChampSim/Berti/bin/tagescl8kb-no-vberti-no-no-no-no-no-lru-lru-lru-srrip-drrip-lru-lru-lru-1core-no
argv[1]: -warmup_instructions
argv[2]: 50000000
argv[3]: -simulation_instructions
argv[4]: 200000000
argv[5]: -traces
argv[6]: traces/spec2k17_ten/648.exchange2_s-353B.champsimtrace.xz
CPU 0 runs traces/spec2k17_ten/648.exchange2_s-353B.champsimtrace.xz
.xz
CPU 0 Tage branch predictor
BTB has LRU replacement policy
ITLB has LRU replacement policy
DTLB has LRU replacement policy
STLB has LRU replacement policy
L1I has LRU replacement policy
History Sets: 8
History Ways: 16
BERTI Size: 16
BERTI Stride Size: 16
L1D has LRU replacement policy
Initialize SRRIP state for L2C
Initialize DRRIP state for LLC
Heartbeat CPU 0 instructions: 10000000 cycles: 2668891 heartbeat IPC: 3.74687 cumulative IPC: 3.74687 (Simulation time: 0 hr 1 min 32 sec) 
Heartbeat CPU 0 instructions: 20000003 cycles: 5341005 heartbeat IPC: 3.74236 cumulative IPC: 3.74461 (Simulation time: 0 hr 3 min 29 sec) 
Heartbeat CPU 0 instructions: 30000002 cycles: 8009143 heartbeat IPC: 3.74793 cumulative IPC: 3.74572 (Simulation time: 0 hr 5 min 28 sec) 
Heartbeat CPU 0 instructions: 40000003 cycles: 10690898 heartbeat IPC: 3.7289 cumulative IPC: 3.7415 (Simulation time: 0 hr 7 min 14 sec) 
Heartbeat CPU 0 instructions: 50000001 cycles: 13362759 heartbeat IPC: 3.74271 cumulative IPC: 3.74174 (Simulation time: 0 hr 8 min 24 sec) 

Warmup complete CPU 0 instructions: 50000001 cycles: 13362759 (Simulation time: 0 hr 8 min 24 sec) 

Heartbeat CPU 0 instructions: 60000003 cycles: 22571530 heartbeat IPC: 1.08592 cumulative IPC: 1.08592 (Simulation time: 0 hr 9 min 52 sec) 
Heartbeat CPU 0 instructions: 70000000 cycles: 31845730 heartbeat IPC: 1.07826 cumulative IPC: 1.08208 (Simulation time: 0 hr 11 min 24 sec) 
Heartbeat CPU 0 instructions: 80000002 cycles: 41980142 heartbeat IPC: 0.986737 cumulative IPC: 1.04831 (Simulation time: 0 hr 14 min 3 sec) 
Heartbeat CPU 0 instructions: 90000000 cycles: 51103833 heartbeat IPC: 1.09605 cumulative IPC: 1.05985 (Simulation time: 0 hr 15 min 57 sec) 
Heartbeat CPU 0 instructions: 100000003 cycles: 60318636 heartbeat IPC: 1.08521 cumulative IPC: 1.06483 (Simulation time: 0 hr 19 min 35 sec) 
Heartbeat CPU 0 instructions: 110000000 cycles: 69551677 heartbeat IPC: 1.08307 cumulative IPC: 1.06783 (Simulation time: 0 hr 22 min 1 sec) 
Heartbeat CPU 0 instructions: 120000002 cycles: 78752060 heartbeat IPC: 1.08691 cumulative IPC: 1.07051 (Simulation time: 0 hr 24 min 26 sec) 
Heartbeat CPU 0 instructions: 130000002 cycles: 87992272 heartbeat IPC: 1.08223 cumulative IPC: 1.07196 (Simulation time: 0 hr 26 min 22 sec) 
Heartbeat CPU 0 instructions: 140000001 cycles: 97168914 heartbeat IPC: 1.08972 cumulative IPC: 1.07391 (Simulation time: 0 hr 27 min 30 sec) 
Heartbeat CPU 0 instructions: 150000003 cycles: 106342309 heartbeat IPC: 1.09011 cumulative IPC: 1.07551 (Simulation time: 0 hr 29 min 36 sec) 
Heartbeat CPU 0 instructions: 160000001 cycles: 115563084 heartbeat IPC: 1.08451 cumulative IPC: 1.07632 (Simulation time: 0 hr 32 min 15 sec) 
Heartbeat CPU 0 instructions: 170000001 cycles: 124816970 heartbeat IPC: 1.08063 cumulative IPC: 1.07668 (Simulation time: 0 hr 34 min 37 sec) 
Heartbeat CPU 0 instructions: 180000000 cycles: 134039438 heartbeat IPC: 1.08431 cumulative IPC: 1.07726 (Simulation time: 0 hr 36 min 40 sec) 
Heartbeat CPU 0 instructions: 190000001 cycles: 143233140 heartbeat IPC: 1.0877 cumulative IPC: 1.078 (Simulation time: 0 hr 38 min 54 sec) 
Heartbeat CPU 0 instructions: 200000003 cycles: 153743720 heartbeat IPC: 0.951422 cumulative IPC: 1.06852 (Simulation time: 0 hr 41 min 8 sec) 
Heartbeat CPU 0 instructions: 210000001 cycles: 167593207 heartbeat IPC: 0.722048 cumulative IPC: 1.03741 (Simulation time: 0 hr 44 min 30 sec) 
Heartbeat CPU 0 instructions: 220000000 cycles: 180514897 heartbeat IPC: 0.773893 cumulative IPC: 1.01704 (Simulation time: 0 hr 46 min 27 sec) 
Heartbeat CPU 0 instructions: 230000000 cycles: 192377016 heartbeat IPC: 0.84302 cumulative IPC: 1.00551 (Simulation time: 0 hr 48 min 52 sec) 
Heartbeat CPU 0 instructions: 240000000 cycles: 201542783 heartbeat IPC: 1.09102 cumulative IPC: 1.00967 (Simulation time: 0 hr 50 min 17 sec) 
Heartbeat CPU 0 instructions: 250000000 cycles: 210823395 heartbeat IPC: 1.07752 cumulative IPC: 1.01286 (Simulation time: 0 hr 51 min 27 sec) 
Finished CPU 0 instructions: 200000003 cycles: 197460637 cumulative IPC: 1.01286 (Simulation time: 0 hr 51 min 27 sec) 

ChampSim completed all CPUs

Region of Interest Statistics

CPU 0 cumulative IPC: 1.01286 instructions: 200000003 cycles: 197460637
ITLB TOTAL     ACCESS:   30146289  HIT:   30146265  MISS:         24  HIT %:    99.9999  MISS %: 7.96118e-05   MPKI: 0.00012
ITLB LOAD TRANSLATION ACCESS:   30146289  HIT:   30146265  MISS:         24  HIT %:    99.9999  MISS %: 7.96118e-05   MPKI: 0.00012
ITLB PREFETCH  REQUESTED:          0  ISSUED:          0  USEFUL:          0  USELESS:          0
ITLB USEFUL LOAD PREFETCHES:          0 PREFETCH ISSUED TO LOWER LEVEL:          0  ACCURACY: -nan
ITLB TIMELY PREFETCHES:          0 LATE PREFETCHES: 0 DROPPED PREFETCHES: 0
ITLB PREFETCHES SAME FILL-ORIGIN LEVEL: 0 DIFFERENT FILL-ORIGIN LEVEL: 0
ITLB AVERAGE MISS LATENCY: 153.333 cycles
ITLB RQ	ACCESS:   36607121	FORWARD:          0	MERGED:    6460826	TO_CACHE:   30146295

DTLB TOTAL     ACCESS:   34213397  HIT:   34213383  MISS:         14  HIT %:        100  MISS %: 4.09196e-05   MPKI: 7e-05
DTLB LOAD TRANSLATION ACCESS:   34213397  HIT:   34213383  MISS:         14  HIT %:        100  MISS %: 4.09196e-05   MPKI: 7e-05
DTLB PREFETCH  REQUESTED:          0  ISSUED:          0  USEFUL:          0  USELESS:          0
DTLB USEFUL LOAD PREFETCHES:          0 PREFETCH ISSUED TO LOWER LEVEL:          0  ACCURACY: -nan
DTLB TIMELY PREFETCHES:          0 LATE PREFETCHES: 0 DROPPED PREFETCHES: 0
DTLB PREFETCHES SAME FILL-ORIGIN LEVEL: 0 DIFFERENT FILL-ORIGIN LEVEL: 0
DTLB AVERAGE MISS LATENCY: 155.571 cycles
DTLB RQ	ACCESS:   53517307	FORWARD:          0	MERGED:   19303909	TO_CACHE:   34213398

STLB TOTAL     ACCESS:         38  HIT:          0  MISS:         38  HIT %:          0  MISS %:        100   MPKI: 0.00019
STLB LOAD TRANSLATION ACCESS:         38  HIT:          0  MISS:         38  HIT %:          0  MISS %:        100   MPKI: 0.00019
STLB PREFETCH  REQUESTED:          0  ISSUED:          0  USEFUL:          0  USELESS:          0
STLB USEFUL LOAD PREFETCHES:          0 PREFETCH ISSUED TO LOWER LEVEL:          0  ACCURACY: -nan
STLB TIMELY PREFETCHES:          0 LATE PREFETCHES: 0 DROPPED PREFETCHES: 0
STLB PREFETCHES SAME FILL-ORIGIN LEVEL: 0 DIFFERENT FILL-ORIGIN LEVEL: 0
STLB AVERAGE MISS LATENCY: 142.579 cycles
STLB RQ	ACCESS:         38	FORWARD:          0	MERGED:          0	TO_CACHE:         38

STLB Hit, L1D data hit: 0
STLB Hit, L2C data hit: 0
STLB Hit, LLC data hit: 0
STLB Hit, LLC data miss: 0
STLB STLB hints to L2: 0
L1D TOTAL     ACCESS:   53516729  HIT:   53516617  MISS:        112  HIT %:    99.9998  MISS %: 0.00020928   MPKI: 0.00056
L1D LOAD      ACCESS:   24659476  HIT:   24659432  MISS:         44  HIT %:    99.9998  MISS %: 0.00017843   MPKI: 0.00022
L1D RFO       ACCESS:   28857253  HIT:   28857185  MISS:         68  HIT %:    99.9998  MISS %: 0.000235643   MPKI: 0.00034
L1D PREFETCH  REQUESTED:          0  ISSUED:          0  USEFUL:          0  USELESS:          0
L1D USEFUL LOAD PREFETCHES:          0 PREFETCH ISSUED TO LOWER LEVEL:          0  ACCURACY: -nan
L1D TIMELY PREFETCHES:          0 LATE PREFETCHES: 0 DROPPED PREFETCHES: 0
L1D PREFETCHES SAME FILL-ORIGIN LEVEL: 0 DIFFERENT FILL-ORIGIN LEVEL: 0
L1D AVERAGE MISS LATENCY: 163.429 cycles
L1D RQ	ACCESS:   40498469	FORWARD:          0	MERGED:   15661231	TO_CACHE:   24659486
L1D WQ	ACCESS:   32523704	FORWARD:     177752	MERGED:    3665883	TO_CACHE:   28857821

L1D UNIQUE REGIONS ACCESSED: 0
L1D REGIONS CONFLICTS: 0
L1D Cross Page Prefetch Requests: 0
L1D Same Page Prefetch Requests: 0
L1D ROI Sum of L1D PQ occupancy: 0
L1D PREFETCHES PUSHED FROM L2C: 0
L1I TOTAL     ACCESS:   36598436  HIT:   36580572  MISS:      17864  HIT %:    99.9512  MISS %:  0.0488108   MPKI: 0.08932
L1I LOAD      ACCESS:   36598436  HIT:   36580572  MISS:      17864  HIT %:    99.9512  MISS %:  0.0488108   MPKI: 0.08932
L1I PREFETCH  REQUESTED:          0  ISSUED:          0  USEFUL:          0  USELESS:          0
L1I USEFUL LOAD PREFETCHES:          0 PREFETCH ISSUED TO LOWER LEVEL:          0  ACCURACY: -nan
L1I TIMELY PREFETCHES:          0 LATE PREFETCHES: 0 DROPPED PREFETCHES: 0
L1I PREFETCHES SAME FILL-ORIGIN LEVEL: 0 DIFFERENT FILL-ORIGIN LEVEL: 0
L1I AVERAGE MISS LATENCY: 20.7061 cycles
L1I RQ	ACCESS:   54663066	FORWARD:          0	MERGED:   18055945	TO_CACHE:   36607121

BTB TOTAL     ACCESS:   25555717  HIT:   25528957  MISS:      26760  HIT %:    99.8953  MISS %:   0.104712   MPKI: 0.1338
BTB BRANCH_DIRECT_JUMP	ACCESS:    2127770  HIT:    2127646  MISS:        124
BTB BRANCH_INDIRECT	ACCESS:          0  HIT:          0  MISS:          0
BTB BRANCH_CONDITIONAL	ACCESS:   23285244  HIT:   23284394  MISS:        850
BTB BRANCH_DIRECT_CALL	ACCESS:      71352  HIT:      71267  MISS:         85
BTB BRANCH_INDIRECT_CALL	ACCESS:          0  HIT:          0  MISS:          0
BTB BRANCH_RETURN	ACCESS:      71351  HIT:      45650  MISS:      25701
BTB BRANCH_OTHER ACCESS:          0  HIT:          0  MISS:          0

L2C TOTAL     ACCESS:      18014  HIT:      16868  MISS:       1146  HIT %:    93.6383  MISS %:    6.36172   MPKI: 0.00573
L2C LOAD      ACCESS:      17908  HIT:      16837  MISS:       1071  HIT %:    94.0194  MISS %:    5.98057   MPKI: 0.005355
L2C DATA LOAD MPKI: 0.00022
L2C INSTRUCTION LOAD MPKI: 0.005135
L2C RFO       ACCESS:         68  HIT:          0  MISS:         68  HIT %:          0  MISS %:        100   MPKI: 0.00034
L2C LOAD TRANSLATION ACCESS:         38  HIT:         31  MISS:          7  HIT %:    81.5789  MISS %:    18.4211   MPKI: 3.5e-05
L2C PREFETCH  REQUESTED:          0  ISSUED:          0  USEFUL:          0  USELESS:          0
L2C USEFUL LOAD PREFETCHES:          0 PREFETCH ISSUED TO LOWER LEVEL:          0  ACCURACY: -nan
L2C TIMELY PREFETCHES:          0 LATE PREFETCHES: 0 DROPPED PREFETCHES: 0
L2C PREFETCHES SAME FILL-ORIGIN LEVEL: 0 DIFFERENT FILL-ORIGIN LEVEL: 0
L2C AVERAGE MISS LATENCY: 119.832 cycles
L2C RQ	ACCESS:      18014	FORWARD:          0	MERGED:          0	TO_CACHE:      18014

L2C Instructions Evicting Data 0
L2C Translations Evicting Data 0
L2C Data Evicting Data 0
L2C Instructions Evicting Instructions 0
L2C Translations Evicting Instructions 0
L2C Data Evicting Instructions 0
L2C Instructions Evicting Translations 0
L2C Translations Evicting Translations 0
L2C Data Evicting Translations 0
L2C Dense regions hint from L2: 0
PSCL5 TOTAL     ACCESS:         38  HIT:         38  MISS:          0  HIT %:        100  MISS %:          0   MPKI: 0
PSCL5 LOAD TRANSLATION ACCESS:         38  HIT:         38  MISS:          0  HIT %:        100  MISS %:          0   MPKI: 0
PSCL5 PREFETCH  REQUESTED:          0  ISSUED:          0  USEFUL:          0  USELESS:          0
PSCL5 USEFUL LOAD PREFETCHES:          0 PREFETCH ISSUED TO LOWER LEVEL:          0  ACCURACY: -nan
PSCL5 TIMELY PREFETCHES:          0 LATE PREFETCHES: 0 DROPPED PREFETCHES: 0
PSCL5 PREFETCHES SAME FILL-ORIGIN LEVEL: 0 DIFFERENT FILL-ORIGIN LEVEL: 0

PSCL4 TOTAL     ACCESS:         38  HIT:         38  MISS:          0  HIT %:        100  MISS %:          0   MPKI: 0
PSCL4 LOAD TRANSLATION ACCESS:         38  HIT:         38  MISS:          0  HIT %:        100  MISS %:          0   MPKI: 0
PSCL4 PREFETCH  REQUESTED:          0  ISSUED:          0  USEFUL:          0  USELESS:          0
PSCL4 USEFUL LOAD PREFETCHES:          0 PREFETCH ISSUED TO LOWER LEVEL:          0  ACCURACY: -nan
PSCL4 TIMELY PREFETCHES:          0 LATE PREFETCHES: 0 DROPPED PREFETCHES: 0
PSCL4 PREFETCHES SAME FILL-ORIGIN LEVEL: 0 DIFFERENT FILL-ORIGIN LEVEL: 0

PSCL3 TOTAL     ACCESS:         38  HIT:         38  MISS:          0  HIT %:        100  MISS %:          0   MPKI: 0
PSCL3 LOAD TRANSLATION ACCESS:         38  HIT:         38  MISS:          0  HIT %:        100  MISS %:          0   MPKI: 0
PSCL3 PREFETCH  REQUESTED:          0  ISSUED:          0  USEFUL:          0  USELESS:          0
PSCL3 USEFUL LOAD PREFETCHES:          0 PREFETCH ISSUED TO LOWER LEVEL:          0  ACCURACY: -nan
PSCL3 TIMELY PREFETCHES:          0 LATE PREFETCHES: 0 DROPPED PREFETCHES: 0
PSCL3 PREFETCHES SAME FILL-ORIGIN LEVEL: 0 DIFFERENT FILL-ORIGIN LEVEL: 0

PSCL2 TOTAL     ACCESS:         38  HIT:         37  MISS:          1  HIT %:    97.3684  MISS %:    2.63158   MPKI: 5e-06
PSCL2 LOAD TRANSLATION ACCESS:         38  HIT:         37  MISS:          1  HIT %:    97.3684  MISS %:    2.63158   MPKI: 5e-06
PSCL2 PREFETCH  REQUESTED:          0  ISSUED:          0  USEFUL:          0  USELESS:          0
PSCL2 USEFUL LOAD PREFETCHES:          0 PREFETCH ISSUED TO LOWER LEVEL:          0  ACCURACY: -nan
PSCL2 TIMELY PREFETCHES:          0 LATE PREFETCHES: 0 DROPPED PREFETCHES: 0
PSCL2 PREFETCHES SAME FILL-ORIGIN LEVEL: 0 DIFFERENT FILL-ORIGIN LEVEL: 0

LLC TOTAL     ACCESS:       1146  HIT:          0  MISS:       1146  HIT %:          0  MISS %:        100   MPKI: 0.00573
LLC LOAD      ACCESS:       1071  HIT:          0  MISS:       1071  HIT %:          0  MISS %:        100   MPKI: 0.005355
LLC RFO       ACCESS:         68  HIT:          0  MISS:         68  HIT %:          0  MISS %:        100   MPKI: 0.00034
LLC LOAD TRANSLATION ACCESS:          7  HIT:          0  MISS:          7  HIT %:          0  MISS %:        100   MPKI: 3.5e-05
LLC PREFETCH  REQUESTED:          0  ISSUED:          0  USEFUL:          0  USELESS:          0
LLC USEFUL LOAD PREFETCHES:          0 PREFETCH ISSUED TO LOWER LEVEL:          0  ACCURACY: -nan
LLC TIMELY PREFETCHES:          0 LATE PREFETCHES: 0 DROPPED PREFETCHES: 0
LLC PREFETCHES SAME FILL-ORIGIN LEVEL: 0 DIFFERENT FILL-ORIGIN LEVEL: 0
LLC AVERAGE MISS LATENCY: 89.6553 cycles
LLC RQ	ACCESS:       1146	FORWARD:          0	MERGED:          0	TO_CACHE:       1146

LLC Dense regions hint to LLC: 0

RAW hits: 6842817
Loads Generated: 47341287
Loads sent to L1D: 40498469
Stores Generated: 32523682
Stores sent to L1D: 32523704
Major fault: 0 Minor fault: 59
Allocated PAGES: 59

DRAM Statistics
 CHANNEL 0
 RQ ROW_BUFFER_HIT:        931  ROW_BUFFER_MISS:        215
 DBUS_CONGESTED:          0
 WQ ROW_BUFFER_HIT:          0  ROW_BUFFER_MISS:          0  FULL:          0

 AVG_CONGESTED_CYCLE: -
 All warmup complete: 2
Channel 0 Bank busy for read cycles: 0
Channel 0 Bank busy for write cycles: 0
Channel 0
Rank 0
0banks busy for read cycles: 197397664
0banks busy for write cycles: 0
1banks busy for read cycles: 48465
1banks busy for write cycles: 0
2banks busy for read cycles: 13440
2banks busy for write cycles: 0
3banks busy for read cycles: 932
3banks busy for write cycles: 0
4banks busy for read cycles: 49
4banks busy for write cycles: 0
5banks busy for read cycles: 65
5banks busy for write cycles: 0
6banks busy for read cycles: 23
6banks busy for write cycles: 0
7banks busy for read cycles: 0
7banks busy for write cycles: 0
8banks busy for read cycles: 0
8banks busy for write cycles: 0

CPU 0 Branch Prediction Accuracy: 98.8043% MPKI: 1.55999 Average ROB Occupancy at Mispredict: 27.369
Branch types
NOT_BRANCH: 171636800 85.8184%
BRANCH_DIRECT_JUMP: 2127770 1.06388%
BRANCH_INDIRECT: 0 0%
BRANCH_CONDITIONAL: 26092411 13.0462%
BRANCH_DIRECT_CALL: 71352 0.035676%
BRANCH_INDIRECT_CALL: 0 0%
BRANCH_RETURN: 71351 0.0356755%
BRANCH_OTHER: 0 0%

DRAM PAGES: 1048576
Allocated PAGES: 59
