 (TOTAL 67349)
 
*** ChampSim Multicore Out-of-Order Simulator ***

Warmup Instructions: 50000000
Simulation Instructions: 200000000
Number of CPUs: 1
LLC sets: 2048
LLC ways: 16
Off-chip DRAM Size: 4096 MB Channels: 1 Width: 64-bit Data Rate: 6400 MT/s
argv[0]: ./ChampSim/Berti/bin/tagescl8kb-no-vberti-no-no-no-no-no-lru-lru-lru-srrip-drrip-lru-lru-lru-1core-no
argv[1]: -warmup_instructions
argv[2]: 50000000
argv[3]: -simulation_instructions
argv[4]: 200000000
argv[5]: -traces
argv[6]: traces/spec2k17_ten/648.exchange2_s-72B.champsimtrace.xz
CPU 0 runs traces/spec2k17_ten/648.exchange2_s-72B.champsimtrace.xz
.xz
CPU 0 Tage branch predictor
BTB has LRU replacement policy
ITLB has LRU replacement policy
DTLB has LRU replacement policy
STLB has LRU replacement policy
L1I has LRU replacement policy
History Sets: 8
History Ways: 16
BERTI Size: 16
BERTI Stride Size: 16
L1D has LRU replacement policy
Initialize SRRIP state for L2C
Initialize DRRIP state for LLC
Heartbeat CPU 0 instructions: 10000001 cycles: 2671432 heartbeat IPC: 3.74331 cumulative IPC: 3.74331 (Simulation time: 0 hr 0 min 57 sec) 
Heartbeat CPU 0 instructions: 20000002 cycles: 5346160 heartbeat IPC: 3.7387 cumulative IPC: 3.741 (Simulation time: 0 hr 2 min 12 sec) 
Heartbeat CPU 0 instructions: 30000001 cycles: 8021580 heartbeat IPC: 3.73773 cumulative IPC: 3.73991 (Simulation time: 0 hr 4 min 12 sec) 
Heartbeat CPU 0 instructions: 40000000 cycles: 10694046 heartbeat IPC: 3.74186 cumulative IPC: 3.7404 (Simulation time: 0 hr 6 min 14 sec) 
Heartbeat CPU 0 instructions: 50000000 cycles: 13382394 heartbeat IPC: 3.71976 cumulative IPC: 3.73625 (Simulation time: 0 hr 8 min 13 sec) 

Warmup complete CPU 0 instructions: 50000004 cycles: 13382395 (Simulation time: 0 hr 8 min 13 sec) 

Heartbeat CPU 0 instructions: 60000001 cycles: 22737764 heartbeat IPC: 1.0689 cumulative IPC: 1.0689 (Simulation time: 0 hr 10 min 32 sec) 
Heartbeat CPU 0 instructions: 70000003 cycles: 31958663 heartbeat IPC: 1.08449 cumulative IPC: 1.07664 (Simulation time: 0 hr 12 min 13 sec) 
Heartbeat CPU 0 instructions: 80000003 cycles: 41212287 heartbeat IPC: 1.08066 cumulative IPC: 1.07798 (Simulation time: 0 hr 14 min 9 sec) 
Heartbeat CPU 0 instructions: 90000000 cycles: 50355712 heartbeat IPC: 1.09368 cumulative IPC: 1.08186 (Simulation time: 0 hr 18 min 25 sec) 
Heartbeat CPU 0 instructions: 100000003 cycles: 59530120 heartbeat IPC: 1.08999 cumulative IPC: 1.08348 (Simulation time: 0 hr 20 min 8 sec) 
Heartbeat CPU 0 instructions: 110000000 cycles: 69585440 heartbeat IPC: 0.994498 cumulative IPC: 1.06756 (Simulation time: 0 hr 21 min 48 sec) 
Heartbeat CPU 0 instructions: 120000000 cycles: 78773339 heartbeat IPC: 1.08839 cumulative IPC: 1.07048 (Simulation time: 0 hr 23 min 7 sec) 
Heartbeat CPU 0 instructions: 130000000 cycles: 87945014 heartbeat IPC: 1.09031 cumulative IPC: 1.07292 (Simulation time: 0 hr 25 min 7 sec) 
Heartbeat CPU 0 instructions: 140000001 cycles: 97172921 heartbeat IPC: 1.08367 cumulative IPC: 1.07411 (Simulation time: 0 hr 27 min 15 sec) 
Heartbeat CPU 0 instructions: 150000001 cycles: 106362949 heartbeat IPC: 1.08814 cumulative IPC: 1.07549 (Simulation time: 0 hr 30 min 42 sec) 
Heartbeat CPU 0 instructions: 160000003 cycles: 115495168 heartbeat IPC: 1.09502 cumulative IPC: 1.07724 (Simulation time: 0 hr 32 min 2 sec) 
Heartbeat CPU 0 instructions: 170000003 cycles: 124695859 heartbeat IPC: 1.08687 cumulative IPC: 1.07804 (Simulation time: 0 hr 33 min 33 sec) 
Heartbeat CPU 0 instructions: 180000000 cycles: 133922020 heartbeat IPC: 1.08387 cumulative IPC: 1.07848 (Simulation time: 0 hr 36 min 8 sec) 
Heartbeat CPU 0 instructions: 190000000 cycles: 143053576 heartbeat IPC: 1.0951 cumulative IPC: 1.07965 (Simulation time: 0 hr 37 min 38 sec) 
Heartbeat CPU 0 instructions: 200000000 cycles: 152241958 heartbeat IPC: 1.08833 cumulative IPC: 1.08023 (Simulation time: 0 hr 39 min 24 sec) 
Heartbeat CPU 0 instructions: 210000001 cycles: 161397663 heartbeat IPC: 1.09222 cumulative IPC: 1.08097 (Simulation time: 0 hr 40 min 52 sec) 
Heartbeat CPU 0 instructions: 220000000 cycles: 170563497 heartbeat IPC: 1.09101 cumulative IPC: 1.08155 (Simulation time: 0 hr 43 min 31 sec) 
Heartbeat CPU 0 instructions: 230000003 cycles: 179702983 heartbeat IPC: 1.09415 cumulative IPC: 1.08225 (Simulation time: 0 hr 44 min 48 sec) 
Heartbeat CPU 0 instructions: 240000000 cycles: 188787451 heartbeat IPC: 1.10078 cumulative IPC: 1.08321 (Simulation time: 0 hr 46 min 10 sec) 
Heartbeat CPU 0 instructions: 250000001 cycles: 197872898 heartbeat IPC: 1.10066 cumulative IPC: 1.08407 (Simulation time: 0 hr 47 min 19 sec) 
Finished CPU 0 instructions: 200000000 cycles: 184490528 cumulative IPC: 1.08407 (Simulation time: 0 hr 47 min 19 sec) 

ChampSim completed all CPUs

Region of Interest Statistics

CPU 0 cumulative IPC: 1.08407 instructions: 200000000 cycles: 184490528
ITLB TOTAL     ACCESS:   29969972  HIT:   29969972  MISS:          0  HIT %:        100  MISS %:          0   MPKI: 0
ITLB LOAD TRANSLATION ACCESS:   29969972  HIT:   29969972  MISS:          0  HIT %:        100  MISS %:          0   MPKI: 0
ITLB PREFETCH  REQUESTED:          0  ISSUED:          0  USEFUL:          0  USELESS:          0
ITLB USEFUL LOAD PREFETCHES:          0 PREFETCH ISSUED TO LOWER LEVEL:          0  ACCURACY: -nan
ITLB TIMELY PREFETCHES:          0 LATE PREFETCHES: 0 DROPPED PREFETCHES: 0
ITLB PREFETCHES SAME FILL-ORIGIN LEVEL: 0 DIFFERENT FILL-ORIGIN LEVEL: 0
ITLB AVERAGE MISS LATENCY: -nan cycles
ITLB RQ	ACCESS:   36584919	FORWARD:          0	MERGED:    6614946	TO_CACHE:   29969973

DTLB TOTAL     ACCESS:   33804049  HIT:   33804049  MISS:          0  HIT %:        100  MISS %:          0   MPKI: 0
DTLB LOAD TRANSLATION ACCESS:   33804049  HIT:   33804049  MISS:          0  HIT %:        100  MISS %:          0   MPKI: 0
DTLB PREFETCH  REQUESTED:          0  ISSUED:          0  USEFUL:          0  USELESS:          0
DTLB USEFUL LOAD PREFETCHES:          0 PREFETCH ISSUED TO LOWER LEVEL:          0  ACCURACY: -nan
DTLB TIMELY PREFETCHES:          0 LATE PREFETCHES: 0 DROPPED PREFETCHES: 0
DTLB PREFETCHES SAME FILL-ORIGIN LEVEL: 0 DIFFERENT FILL-ORIGIN LEVEL: 0
DTLB AVERAGE MISS LATENCY: -nan cycles
DTLB RQ	ACCESS:   53929927	FORWARD:          0	MERGED:   20125878	TO_CACHE:   33804049

STLB PREFETCH  REQUESTED:          0  ISSUED:          0  USEFUL:          0  USELESS:          0
STLB USEFUL LOAD PREFETCHES:          0 PREFETCH ISSUED TO LOWER LEVEL:          0  ACCURACY: -nan
STLB TIMELY PREFETCHES:          0 LATE PREFETCHES: 0 DROPPED PREFETCHES: 0
STLB PREFETCHES SAME FILL-ORIGIN LEVEL: 0 DIFFERENT FILL-ORIGIN LEVEL: 0
STLB AVERAGE MISS LATENCY: -nan cycles

STLB Hit, L1D data hit: 0
STLB Hit, L2C data hit: 0
STLB Hit, LLC data hit: 0
STLB Hit, LLC data miss: 0
STLB STLB hints to L2: 0
L1D TOTAL     ACCESS:   53929927  HIT:   53929927  MISS:          0  HIT %:        100  MISS %:          0   MPKI: 0
L1D LOAD      ACCESS:   23861069  HIT:   23861069  MISS:          0  HIT %:        100  MISS %:          0   MPKI: 0
L1D RFO       ACCESS:   30068858  HIT:   30068858  MISS:          0  HIT %:        100  MISS %:          0   MPKI: 0
L1D PREFETCH  REQUESTED:          0  ISSUED:          0  USEFUL:          0  USELESS:          0
L1D USEFUL LOAD PREFETCHES:          0 PREFETCH ISSUED TO LOWER LEVEL:          0  ACCURACY: -nan
L1D TIMELY PREFETCHES:          0 LATE PREFETCHES: 0 DROPPED PREFETCHES: 0
L1D PREFETCHES SAME FILL-ORIGIN LEVEL: 0 DIFFERENT FILL-ORIGIN LEVEL: 0
L1D AVERAGE MISS LATENCY: -nan cycles
L1D RQ	ACCESS:   40078571	FORWARD:          0	MERGED:   16015046	TO_CACHE:   23861069
L1D WQ	ACCESS:   33779517	FORWARD:     202456	MERGED:    3710659	TO_CACHE:   30068858

L1D UNIQUE REGIONS ACCESSED: 0
L1D REGIONS CONFLICTS: 0
L1D Cross Page Prefetch Requests: 0
L1D Same Page Prefetch Requests: 0
L1D ROI Sum of L1D PQ occupancy: 0
L1D PREFETCHES PUSHED FROM L2C: 0
L1I TOTAL     ACCESS:   36584419  HIT:   36583243  MISS:       1176  HIT %:    99.9968  MISS %: 0.00321448   MPKI: 0.00588
L1I LOAD      ACCESS:   36584419  HIT:   36583243  MISS:       1176  HIT %:    99.9968  MISS %: 0.00321448   MPKI: 0.00588
L1I PREFETCH  REQUESTED:          0  ISSUED:          0  USEFUL:          0  USELESS:          0
L1I USEFUL LOAD PREFETCHES:          0 PREFETCH ISSUED TO LOWER LEVEL:          0  ACCURACY: -nan
L1I TIMELY PREFETCHES:          0 LATE PREFETCHES: 0 DROPPED PREFETCHES: 0
L1I PREFETCHES SAME FILL-ORIGIN LEVEL: 0 DIFFERENT FILL-ORIGIN LEVEL: 0
L1I AVERAGE MISS LATENCY: 16.2117 cycles
L1I RQ	ACCESS:   54529691	FORWARD:          0	MERGED:   17944772	TO_CACHE:   36584919

BTB TOTAL     ACCESS:   25038739  HIT:   25036273  MISS:       2466  HIT %:    99.9902  MISS %: 0.00984874   MPKI: 0.01233
BTB BRANCH_DIRECT_JUMP	ACCESS:    2061595  HIT:    2061484  MISS:        111
BTB BRANCH_INDIRECT	ACCESS:          0  HIT:          0  MISS:          0
BTB BRANCH_CONDITIONAL	ACCESS:   22920818  HIT:   22920130  MISS:        688
BTB BRANCH_DIRECT_CALL	ACCESS:      28164  HIT:      28084  MISS:         80
BTB BRANCH_INDIRECT_CALL	ACCESS:          0  HIT:          0  MISS:          0
BTB BRANCH_RETURN	ACCESS:      28162  HIT:      26575  MISS:       1587
BTB BRANCH_OTHER ACCESS:          0  HIT:          0  MISS:          0

L2C TOTAL     ACCESS:       1176  HIT:       1158  MISS:         18  HIT %:    98.4694  MISS %:    1.53061   MPKI: 9e-05
L2C LOAD      ACCESS:       1176  HIT:       1158  MISS:         18  HIT %:    98.4694  MISS %:    1.53061   MPKI: 9e-05
L2C DATA LOAD MPKI: 0
L2C INSTRUCTION LOAD MPKI: 9e-05
L2C PREFETCH  REQUESTED:          0  ISSUED:          0  USEFUL:          0  USELESS:          0
L2C USEFUL LOAD PREFETCHES:          0 PREFETCH ISSUED TO LOWER LEVEL:          0  ACCURACY: -nan
L2C TIMELY PREFETCHES:          0 LATE PREFETCHES: 0 DROPPED PREFETCHES: 0
L2C PREFETCHES SAME FILL-ORIGIN LEVEL: 0 DIFFERENT FILL-ORIGIN LEVEL: 0
L2C AVERAGE MISS LATENCY: 144.444 cycles
L2C RQ	ACCESS:       1176	FORWARD:          0	MERGED:          0	TO_CACHE:       1176

L2C Instructions Evicting Data 0
L2C Translations Evicting Data 0
L2C Data Evicting Data 0
L2C Instructions Evicting Instructions 0
L2C Translations Evicting Instructions 0
L2C Data Evicting Instructions 0
L2C Instructions Evicting Translations 0
L2C Translations Evicting Translations 0
L2C Data Evicting Translations 0
L2C Dense regions hint from L2: 0
PSCL5 PREFETCH  REQUESTED:          0  ISSUED:          0  USEFUL:          0  USELESS:          0
PSCL5 USEFUL LOAD PREFETCHES:          0 PREFETCH ISSUED TO LOWER LEVEL:          0  ACCURACY: -nan
PSCL5 TIMELY PREFETCHES:          0 LATE PREFETCHES: 0 DROPPED PREFETCHES: 0
PSCL5 PREFETCHES SAME FILL-ORIGIN LEVEL: 0 DIFFERENT FILL-ORIGIN LEVEL: 0

PSCL4 PREFETCH  REQUESTED:          0  ISSUED:          0  USEFUL:          0  USELESS:          0
PSCL4 USEFUL LOAD PREFETCHES:          0 PREFETCH ISSUED TO LOWER LEVEL:          0  ACCURACY: -nan
PSCL4 TIMELY PREFETCHES:          0 LATE PREFETCHES: 0 DROPPED PREFETCHES: 0
PSCL4 PREFETCHES SAME FILL-ORIGIN LEVEL: 0 DIFFERENT FILL-ORIGIN LEVEL: 0

PSCL3 PREFETCH  REQUESTED:          0  ISSUED:          0  USEFUL:          0  USELESS:          0
PSCL3 USEFUL LOAD PREFETCHES:          0 PREFETCH ISSUED TO LOWER LEVEL:          0  ACCURACY: -nan
PSCL3 TIMELY PREFETCHES:          0 LATE PREFETCHES: 0 DROPPED PREFETCHES: 0
PSCL3 PREFETCHES SAME FILL-ORIGIN LEVEL: 0 DIFFERENT FILL-ORIGIN LEVEL: 0

PSCL2 PREFETCH  REQUESTED:          0  ISSUED:          0  USEFUL:          0  USELESS:          0
PSCL2 USEFUL LOAD PREFETCHES:          0 PREFETCH ISSUED TO LOWER LEVEL:          0  ACCURACY: -nan
PSCL2 TIMELY PREFETCHES:          0 LATE PREFETCHES: 0 DROPPED PREFETCHES: 0
PSCL2 PREFETCHES SAME FILL-ORIGIN LEVEL: 0 DIFFERENT FILL-ORIGIN LEVEL: 0

LLC TOTAL     ACCESS:         18  HIT:          0  MISS:         18  HIT %:          0  MISS %:        100   MPKI: 9e-05
LLC LOAD      ACCESS:         18  HIT:          0  MISS:         18  HIT %:          0  MISS %:        100   MPKI: 9e-05
LLC PREFETCH  REQUESTED:          0  ISSUED:          0  USEFUL:          0  USELESS:          0
LLC USEFUL LOAD PREFETCHES:          0 PREFETCH ISSUED TO LOWER LEVEL:          0  ACCURACY: -nan
LLC TIMELY PREFETCHES:          0 LATE PREFETCHES: 0 DROPPED PREFETCHES: 0
LLC PREFETCHES SAME FILL-ORIGIN LEVEL: 0 DIFFERENT FILL-ORIGIN LEVEL: 0
LLC AVERAGE MISS LATENCY: 114.444 cycles
LLC RQ	ACCESS:         18	FORWARD:          0	MERGED:          0	TO_CACHE:         18

LLC Dense regions hint to LLC: 0

RAW hits: 7380540
Loads Generated: 47459112
Loads sent to L1D: 40078571
Stores Generated: 33779505
Stores sent to L1D: 33779517
Major fault: 0 Minor fault: 57
Allocated PAGES: 57

DRAM Statistics
 CHANNEL 0
 RQ ROW_BUFFER_HIT:         10  ROW_BUFFER_MISS:          8
 DBUS_CONGESTED:          0
 WQ ROW_BUFFER_HIT:          0  ROW_BUFFER_MISS:          0  FULL:          0

 AVG_CONGESTED_CYCLE: -
 All warmup complete: 2
Channel 0 Bank busy for read cycles: 0
Channel 0 Bank busy for write cycles: 0
Channel 0
Rank 0
0banks busy for read cycles: 184489354
0banks busy for write cycles: 0
1banks busy for read cycles: 650
1banks busy for write cycles: 0
2banks busy for read cycles: 525
2banks busy for write cycles: 0
3banks busy for read cycles: 0
3banks busy for write cycles: 0
4banks busy for read cycles: 0
4banks busy for write cycles: 0
5banks busy for read cycles: 0
5banks busy for write cycles: 0
6banks busy for read cycles: 0
6banks busy for write cycles: 0
7banks busy for read cycles: 0
7banks busy for write cycles: 0
8banks busy for read cycles: 0
8banks busy for write cycles: 0

CPU 0 Branch Prediction Accuracy: 99.022% MPKI: 1.2462 Average ROB Occupancy at Mispredict: 31.1873
Branch types
NOT_BRANCH: 172396929 86.1985%
BRANCH_DIRECT_JUMP: 2061595 1.0308%
BRANCH_INDIRECT: 0 0%
BRANCH_CONDITIONAL: 25484843 12.7424%
BRANCH_DIRECT_CALL: 28164 0.014082%
BRANCH_INDIRECT_CALL: 0 0%
BRANCH_RETURN: 28162 0.014081%
BRANCH_OTHER: 0 0%

DRAM PAGES: 1048576
Allocated PAGES: 57
