 (TOTAL 523355 bits 511 Kbits) 
*** ChampSim Multicore Out-of-Order Simulator ***

Warmup Instructions: 50000000
Simulation Instructions: 200000000
Number of CPUs: 1
LLC sets: 2048
LLC ways: 16
Off-chip DRAM Size: 4096 MB Channels: 1 Width: 64-bit Data Rate: 6400 MT/s
argv[0]: ./ChampSim/Berti/bin/tagescl-no-vberti-no-no-no-no-no-lru-lru-lru-srrip-drrip-lru-lru-lru-1core-no
argv[1]: -warmup_instructions
argv[2]: 50000000
argv[3]: -simulation_instructions
argv[4]: 200000000
argv[5]: -traces
argv[6]: traces/spec2k17_ten/602.gcc_s-2226B.champsimtrace.xz
CPU 0 runs traces/spec2k17_ten/602.gcc_s-2226B.champsimtrace.xz
.xz
CPU 0 Tage branch predictor
BTB has LRU replacement policy
ITLB has LRU replacement policy
DTLB has LRU replacement policy
STLB has LRU replacement policy
L1I has LRU replacement policy
History Sets: 8
History Ways: 16
BERTI Size: 16
BERTI Stride Size: 16
L1D has LRU replacement policy
Initialize SRRIP state for L2C
Initialize DRRIP state for LLC
Heartbeat CPU 0 instructions: 10000002 cycles: 3740693 heartbeat IPC: 2.6733 cumulative IPC: 2.6733 (Simulation time: 0 hr 4 min 30 sec) 
Heartbeat CPU 0 instructions: 20000001 cycles: 7483152 heartbeat IPC: 2.67204 cumulative IPC: 2.67267 (Simulation time: 0 hr 18 min 20 sec) 
Heartbeat CPU 0 instructions: 30000001 cycles: 11220010 heartbeat IPC: 2.67604 cumulative IPC: 2.67379 (Simulation time: 0 hr 30 min 53 sec) 
Heartbeat CPU 0 instructions: 40000002 cycles: 14954758 heartbeat IPC: 2.67756 cumulative IPC: 2.67473 (Simulation time: 0 hr 41 min 4 sec) 
Heartbeat CPU 0 instructions: 50000000 cycles: 18688732 heartbeat IPC: 2.67811 cumulative IPC: 2.67541 (Simulation time: 0 hr 53 min 42 sec) 

Warmup complete CPU 0 instructions: 50000004 cycles: 18688733 (Simulation time: 0 hr 53 min 42 sec) 

Heartbeat CPU 0 instructions: 60000001 cycles: 43485557 heartbeat IPC: 0.403277 cumulative IPC: 0.403277 (Simulation time: 1 hr 11 min 11 sec) 
Heartbeat CPU 0 instructions: 70000000 cycles: 68069508 heartbeat IPC: 0.406769 cumulative IPC: 0.405016 (Simulation time: 1 hr 28 min 2 sec) 
Heartbeat CPU 0 instructions: 80000000 cycles: 92806151 heartbeat IPC: 0.404259 cumulative IPC: 0.404763 (Simulation time: 1 hr 43 min 53 sec) 
Heartbeat CPU 0 instructions: 90000001 cycles: 117430995 heartbeat IPC: 0.406094 cumulative IPC: 0.405095 (Simulation time: 1 hr 58 min 37 sec) 
Heartbeat CPU 0 instructions: 100000001 cycles: 142109098 heartbeat IPC: 0.405218 cumulative IPC: 0.40512 (Simulation time: 2 hr 14 min 56 sec) 
Heartbeat CPU 0 instructions: 110000000 cycles: 166692578 heartbeat IPC: 0.406777 cumulative IPC: 0.405395 (Simulation time: 2 hr 30 min 52 sec) 
Heartbeat CPU 0 instructions: 120000000 cycles: 191481892 heartbeat IPC: 0.4034 cumulative IPC: 0.405109 (Simulation time: 2 hr 46 min 55 sec) 
Heartbeat CPU 0 instructions: 130000001 cycles: 216329596 heartbeat IPC: 0.402452 cumulative IPC: 0.404775 (Simulation time: 3 hr 2 min 56 sec) 
Heartbeat CPU 0 instructions: 140000000 cycles: 240897487 heartbeat IPC: 0.407035 cumulative IPC: 0.405025 (Simulation time: 3 hr 18 min 14 sec) 
Heartbeat CPU 0 instructions: 150000001 cycles: 265435045 heartbeat IPC: 0.407539 cumulative IPC: 0.405275 (Simulation time: 3 hr 33 min 31 sec) 
Heartbeat CPU 0 instructions: 160000002 cycles: 290149830 heartbeat IPC: 0.404616 cumulative IPC: 0.405215 (Simulation time: 3 hr 48 min 17 sec) 
Heartbeat CPU 0 instructions: 170000001 cycles: 314911736 heartbeat IPC: 0.403846 cumulative IPC: 0.4051 (Simulation time: 4 hr 2 min 25 sec) 
Heartbeat CPU 0 instructions: 180000000 cycles: 339397060 heartbeat IPC: 0.408408 cumulative IPC: 0.405353 (Simulation time: 4 hr 11 min 44 sec) 
Heartbeat CPU 0 instructions: 190000002 cycles: 364103884 heartbeat IPC: 0.404747 cumulative IPC: 0.405309 (Simulation time: 4 hr 21 min 21 sec) 
Heartbeat CPU 0 instructions: 200000000 cycles: 388748819 heartbeat IPC: 0.405763 cumulative IPC: 0.40534 (Simulation time: 4 hr 29 min 53 sec) 
Heartbeat CPU 0 instructions: 210000003 cycles: 413397298 heartbeat IPC: 0.405705 cumulative IPC: 0.405362 (Simulation time: 4 hr 36 min 9 sec) 
Heartbeat CPU 0 instructions: 220000000 cycles: 437947212 heartbeat IPC: 0.407333 cumulative IPC: 0.405478 (Simulation time: 4 hr 42 min 0 sec) 
Heartbeat CPU 0 instructions: 230000001 cycles: 462570204 heartbeat IPC: 0.406125 cumulative IPC: 0.405514 (Simulation time: 4 hr 46 min 6 sec) 
Heartbeat CPU 0 instructions: 240000001 cycles: 487241990 heartbeat IPC: 0.405321 cumulative IPC: 0.405504 (Simulation time: 4 hr 49 min 15 sec) 
Heartbeat CPU 0 instructions: 250000000 cycles: 511930328 heartbeat IPC: 0.40505 cumulative IPC: 0.405481 (Simulation time: 4 hr 51 min 36 sec) 
Finished CPU 0 instructions: 200000000 cycles: 493241596 cumulative IPC: 0.405481 (Simulation time: 4 hr 51 min 36 sec) 

ChampSim completed all CPUs

Region of Interest Statistics

CPU 0 cumulative IPC: 0.405481 instructions: 200000000 cycles: 493241596
ITLB TOTAL     ACCESS:   44619286  HIT:   44619286  MISS:          0  HIT %:        100  MISS %:          0   MPKI: 0
ITLB LOAD TRANSLATION ACCESS:   44619286  HIT:   44619286  MISS:          0  HIT %:        100  MISS %:          0   MPKI: 0
ITLB PREFETCH  REQUESTED:          0  ISSUED:          0  USEFUL:          0  USELESS:          0
ITLB USEFUL LOAD PREFETCHES:          0 PREFETCH ISSUED TO LOWER LEVEL:          0  ACCURACY: -nan
ITLB TIMELY PREFETCHES:          0 LATE PREFETCHES: 0 DROPPED PREFETCHES: 0
ITLB PREFETCHES SAME FILL-ORIGIN LEVEL: 0 DIFFERENT FILL-ORIGIN LEVEL: 0
ITLB AVERAGE MISS LATENCY: -nan cycles
ITLB RQ	ACCESS:   45719615	FORWARD:          0	MERGED:    1100329	TO_CACHE:   44619286

DTLB TOTAL     ACCESS:   30268805  HIT:   29995308  MISS:     273497  HIT %:    99.0964  MISS %:   0.903561   MPKI: 1.36749
DTLB LOAD TRANSLATION ACCESS:   30268805  HIT:   29995308  MISS:     273497  HIT %:    99.0964  MISS %:   0.903561   MPKI: 1.36749
DTLB PREFETCH  REQUESTED:          0  ISSUED:          0  USEFUL:          0  USELESS:          0
DTLB USEFUL LOAD PREFETCHES:          0 PREFETCH ISSUED TO LOWER LEVEL:          0  ACCURACY: -nan
DTLB TIMELY PREFETCHES:          0 LATE PREFETCHES: 0 DROPPED PREFETCHES: 0
DTLB PREFETCHES SAME FILL-ORIGIN LEVEL: 0 DIFFERENT FILL-ORIGIN LEVEL: 0
DTLB AVERAGE MISS LATENCY: 28.0712 cycles
DTLB RQ	ACCESS:   35744872	FORWARD:          0	MERGED:    5475399	TO_CACHE:   30269473

STLB TOTAL     ACCESS:   27266683  HIT:   27002816  MISS:     263867  HIT %:    99.0323  MISS %:   0.967727   MPKI: 1.31933
STLB LOAD TRANSLATION ACCESS:     273497  HIT:     233213  MISS:      40284  HIT %:    85.2708  MISS %:    14.7292   MPKI: 0.20142
STLB TRANSLATION FROM L1D PREFETCHER ACCESS:   26993186  HIT:   26769603  MISS:     223583  HIT %:    99.1717  MISS %:   0.828294   MPKI: 1.11791
STLB PREFETCH  REQUESTED:          0  ISSUED:          0  USEFUL:     223469  USELESS:        114
STLB USEFUL LOAD PREFETCHES:     223469 PREFETCH ISSUED TO LOWER LEVEL:          0  ACCURACY: inf
STLB TIMELY PREFETCHES:     223469 LATE PREFETCHES: 160 DROPPED PREFETCHES: 2411703
STLB PREFETCHES SAME FILL-ORIGIN LEVEL: 0 DIFFERENT FILL-ORIGIN LEVEL: 0
STLB AVERAGE MISS LATENCY: 66.7472 cycles
STLB RQ	ACCESS:  131125608	FORWARD:          0	MERGED:  101325876	TO_CACHE:   29799732

STLB Hit, L1D data hit: 0
STLB Hit, L2C data hit: 0
STLB Hit, LLC data hit: 0
STLB Hit, LLC data miss: 0
STLB STLB hints to L2: 0
L1D TOTAL     ACCESS:  126786958  HIT:  112320010  MISS:   14466948  HIT %:    88.5896  MISS %:    11.4104   MPKI: 72.3347
L1D LOAD      ACCESS:   32037299  HIT:   29058671  MISS:    2978628  HIT %:    90.7026  MISS %:    9.29738   MPKI: 14.8931
L1D RFO       ACCESS:    2659780  HIT:    2654288  MISS:       5492  HIT %:    99.7935  MISS %:   0.206483   MPKI: 0.02746
L1D PREFETCH  ACCESS:   92089879  HIT:   80607051  MISS:   11482828  HIT %:    87.5308  MISS %:    12.4692   MPKI: 57.4141
L1D PREFETCH  REQUESTED:  315763129  ISSUED:  311693166  USEFUL:   11025704  USELESS:     457109
L1D USEFUL LOAD PREFETCHES:   11025704 PREFETCH ISSUED TO LOWER LEVEL:   40728671  ACCURACY: 27.0711
L1D TIMELY PREFETCHES:   11025704 LATE PREFETCHES: 190392 DROPPED PREFETCHES: 2557102
L1D PREFETCHES SAME FILL-ORIGIN LEVEL: 11675866 DIFFERENT FILL-ORIGIN LEVEL: 29052805
L1D AVERAGE MISS LATENCY: 65.5952 cycles
L1D RQ	ACCESS:   71767362	FORWARD:          0	MERGED:   38674488	TO_CACHE:   33085062
L1D WQ	ACCESS:    2952864	FORWARD:       7812	MERGED:     293054	TO_CACHE:    2659810
L1D PQ	ACCESS:  180841055	FORWARD:          0	MERGED:   49988944	TO_CACHE:  130852111

L1D UNIQUE REGIONS ACCESSED: 0
L1D REGIONS CONFLICTS: 0
L1D Cross Page Prefetch Requests: 33082138
L1D Same Page Prefetch Requests: 183672135
L1D ROI Sum of L1D PQ occupancy: 2393050421
L1D PREFETCHES PUSHED FROM L2C: 0
L1I TOTAL     ACCESS:   45719611  HIT:   45719586  MISS:         25  HIT %:    99.9999  MISS %: 5.46811e-05   MPKI: 0.000125
L1I LOAD      ACCESS:   45719611  HIT:   45719586  MISS:         25  HIT %:    99.9999  MISS %: 5.46811e-05   MPKI: 0.000125
L1I PREFETCH  REQUESTED:          0  ISSUED:          0  USEFUL:          0  USELESS:          0
L1I USEFUL LOAD PREFETCHES:          0 PREFETCH ISSUED TO LOWER LEVEL:          0  ACCURACY: -nan
L1I TIMELY PREFETCHES:          0 LATE PREFETCHES: 0 DROPPED PREFETCHES: 0
L1I PREFETCHES SAME FILL-ORIGIN LEVEL: 0 DIFFERENT FILL-ORIGIN LEVEL: 0
L1I AVERAGE MISS LATENCY: 210 cycles
L1I RQ	ACCESS:   68863472	FORWARD:          0	MERGED:   23143857	TO_CACHE:   45719615

BTB TOTAL     ACCESS:   47939709  HIT:   47938647  MISS:       1062  HIT %:    99.9978  MISS %: 0.00221528   MPKI: 0.00531
BTB BRANCH_DIRECT_JUMP	ACCESS:     685292  HIT:     685256  MISS:         36
BTB BRANCH_INDIRECT	ACCESS:          0  HIT:          0  MISS:          0
BTB BRANCH_CONDITIONAL	ACCESS:   46577615  HIT:   46577537  MISS:         78
BTB BRANCH_DIRECT_CALL	ACCESS:     338401  HIT:     338385  MISS:         16
BTB BRANCH_INDIRECT_CALL	ACCESS:          0  HIT:          0  MISS:          0
BTB BRANCH_RETURN	ACCESS:     338401  HIT:     337469  MISS:        932
BTB BRANCH_OTHER ACCESS:          0  HIT:          0  MISS:          0

L2C TOTAL     ACCESS:   40506957  HIT:   25731001  MISS:   14775956  HIT %:    63.5224  MISS %:    36.4776   MPKI: 73.8798
L2C LOAD      ACCESS:    2788261  HIT:    2457421  MISS:     330840  HIT %:    88.1345  MISS %:    11.8655   MPKI: 1.6542
L2C DATA LOAD MPKI: 1.65407
L2C INSTRUCTION LOAD MPKI: 0.000125
L2C RFO       ACCESS:       5492  HIT:       1028  MISS:       4464  HIT %:    18.7181  MISS %:    81.2819   MPKI: 0.02232
L2C PREFETCH  ACCESS:   34984403  HIT:   20619749  MISS:   14364654  HIT %:    58.9398  MISS %:    41.0602   MPKI: 71.8233
L2C DATA PREFETCH MPKI: 71.8233
L2C INSTRUCTION PREFETCH MPKI: 0
L2C WRITEBACK ACCESS:      23205  HIT:      22300  MISS:        905  HIT %:       96.1  MISS %:    3.90002   MPKI: 0.004525
L2C LOAD TRANSLATION ACCESS:      45729  HIT:      15535  MISS:      30194  HIT %:    33.9719  MISS %:    66.0281   MPKI: 0.15097
L2C TRANSLATION FROM L1D PREFETCHER ACCESS:    2659867  HIT:    2614968  MISS:      44899  HIT %:     98.312  MISS %:    1.68802   MPKI: 0.224495
L2C PREFETCH  REQUESTED:          0  ISSUED:          0  USEFUL:    2487412  USELESS:   11923800
L2C USEFUL LOAD PREFETCHES:    2487412 PREFETCH ISSUED TO LOWER LEVEL:   14534817  ACCURACY: 17.1135
L2C TIMELY PREFETCHES:    2487412 LATE PREFETCHES: 170161 DROPPED PREFETCHES: 0
L2C PREFETCHES SAME FILL-ORIGIN LEVEL: 8967529 DIFFERENT FILL-ORIGIN LEVEL: 0
L2C AVERAGE MISS LATENCY: 132.303 cycles
L2C RQ	ACCESS:    5499349	FORWARD:          0	MERGED:          0	TO_CACHE:    5499349
L2C WQ	ACCESS:      23205	FORWARD:          0	MERGED:          0	TO_CACHE:      23205
L2C PQ	ACCESS:   40703272	FORWARD:          0	MERGED:      12612	TO_CACHE:   40690660

L2C Instructions Evicting Data 25
L2C Translations Evicting Data 74644
L2C Data Evicting Data 14625257
L2C Instructions Evicting Instructions 0
L2C Translations Evicting Instructions 0
L2C Data Evicting Instructions 25
L2C Instructions Evicting Translations 0
L2C Translations Evicting Translations 449
L2C Data Evicting Translations 74651
L2C Dense regions hint from L2: 0
PSCL5 TOTAL     ACCESS:    2675600  HIT:    2675600  MISS:          0  HIT %:        100  MISS %:          0   MPKI: 0
PSCL5 LOAD TRANSLATION ACCESS:      40153  HIT:      40153  MISS:          0  HIT %:        100  MISS %:          0   MPKI: 0
PSCL5 TRANSLATION FROM L1D PREFETCHER ACCESS:    2635447  HIT:    2635447  MISS:          0  HIT %:        100  MISS %:          0   MPKI: 0
PSCL5 PREFETCH  REQUESTED:          0  ISSUED:          0  USEFUL:          0  USELESS:          0
PSCL5 USEFUL LOAD PREFETCHES:          0 PREFETCH ISSUED TO LOWER LEVEL:          0  ACCURACY: -nan
PSCL5 TIMELY PREFETCHES:          0 LATE PREFETCHES: 0 DROPPED PREFETCHES: 0
PSCL5 PREFETCHES SAME FILL-ORIGIN LEVEL: 0 DIFFERENT FILL-ORIGIN LEVEL: 0

PSCL4 TOTAL     ACCESS:    2675600  HIT:    2675600  MISS:          0  HIT %:        100  MISS %:          0   MPKI: 0
PSCL4 LOAD TRANSLATION ACCESS:      40153  HIT:      40153  MISS:          0  HIT %:        100  MISS %:          0   MPKI: 0
PSCL4 TRANSLATION FROM L1D PREFETCHER ACCESS:    2635447  HIT:    2635447  MISS:          0  HIT %:        100  MISS %:          0   MPKI: 0
PSCL4 PREFETCH  REQUESTED:          0  ISSUED:          0  USEFUL:          0  USELESS:          0
PSCL4 USEFUL LOAD PREFETCHES:          0 PREFETCH ISSUED TO LOWER LEVEL:          0  ACCURACY: -nan
PSCL4 TIMELY PREFETCHES:          0 LATE PREFETCHES: 0 DROPPED PREFETCHES: 0
PSCL4 PREFETCHES SAME FILL-ORIGIN LEVEL: 0 DIFFERENT FILL-ORIGIN LEVEL: 0

PSCL3 TOTAL     ACCESS:    2675594  HIT:    2675567  MISS:         27  HIT %:     99.999  MISS %: 0.00100912   MPKI: 0.000135
PSCL3 LOAD TRANSLATION ACCESS:      40152  HIT:      40125  MISS:         27  HIT %:    99.9328  MISS %:  0.0672445   MPKI: 0.000135
PSCL3 TRANSLATION FROM L1D PREFETCHER ACCESS:    2635442  HIT:    2635442  MISS:          0  HIT %:        100  MISS %:          0   MPKI: 0
PSCL3 PREFETCH  REQUESTED:          0  ISSUED:          0  USEFUL:          0  USELESS:          0
PSCL3 USEFUL LOAD PREFETCHES:          0 PREFETCH ISSUED TO LOWER LEVEL:          0  ACCURACY: -nan
PSCL3 TIMELY PREFETCHES:          0 LATE PREFETCHES: 0 DROPPED PREFETCHES: 0
PSCL3 PREFETCHES SAME FILL-ORIGIN LEVEL: 0 DIFFERENT FILL-ORIGIN LEVEL: 0

PSCL2 TOTAL     ACCESS:    2651282  HIT:    2645059  MISS:       6223  HIT %:    99.7653  MISS %:   0.234717   MPKI: 0.031115
PSCL2 LOAD TRANSLATION ACCESS:      40817  HIT:      34594  MISS:       6223  HIT %:    84.7539  MISS %:    15.2461   MPKI: 0.031115
PSCL2 TRANSLATION FROM L1D PREFETCHER ACCESS:    2610465  HIT:    2610465  MISS:          0  HIT %:        100  MISS %:          0   MPKI: 0
PSCL2 PREFETCH  REQUESTED:          0  ISSUED:          0  USEFUL:          0  USELESS:          0
PSCL2 USEFUL LOAD PREFETCHES:          0 PREFETCH ISSUED TO LOWER LEVEL:          0  ACCURACY: -nan
PSCL2 TIMELY PREFETCHES:          0 LATE PREFETCHES: 0 DROPPED PREFETCHES: 0
PSCL2 PREFETCHES SAME FILL-ORIGIN LEVEL: 0 DIFFERENT FILL-ORIGIN LEVEL: 0

LLC TOTAL     ACCESS:   14797697  HIT:     104032  MISS:   14693665  HIT %:   0.703028  MISS %:     99.297   MPKI: 73.4683
LLC LOAD      ACCESS:     160679  HIT:       6279  MISS:     154400  HIT %:    3.90779  MISS %:    96.0922   MPKI: 0.772
LLC RFO       ACCESS:       4464  HIT:         16  MISS:       4448  HIT %:   0.358423  MISS %:    99.6416   MPKI: 0.02224
LLC PREFETCH  ACCESS:   14534815  HIT:      70220  MISS:   14464595  HIT %:   0.483116  MISS %:    99.5169   MPKI: 72.323
LLC WRITEBACK ACCESS:      22646  HIT:      22180  MISS:        466  HIT %:    97.9422  MISS %:    2.05776   MPKI: 0.00233
LLC LOAD TRANSLATION ACCESS:      30194  HIT:       3037  MISS:      27157  HIT %:    10.0583  MISS %:    89.9417   MPKI: 0.135785
LLC TRANSLATION FROM L1D PREFETCHER ACCESS:      44899  HIT:       2300  MISS:      42599  HIT %:    5.12261  MISS %:    94.8774   MPKI: 0.212995
LLC PREFETCH  REQUESTED:          0  ISSUED:          0  USEFUL:       2698  USELESS:   14504059
LLC USEFUL LOAD PREFETCHES:       2698 PREFETCH ISSUED TO LOWER LEVEL:   14464597  ACCURACY: 0.0186524
LLC TIMELY PREFETCHES:       2698 LATE PREFETCHES: 0 DROPPED PREFETCHES: 0
LLC PREFETCHES SAME FILL-ORIGIN LEVEL: 0 DIFFERENT FILL-ORIGIN LEVEL: 0
LLC AVERAGE MISS LATENCY: 103.879 cycles
LLC RQ	ACCESS:     240236	FORWARD:          0	MERGED:          0	TO_CACHE:     240236
LLC WQ	ACCESS:      22646	FORWARD:          0	MERGED:          0	TO_CACHE:      22646
LLC PQ	ACCESS:   14534817	FORWARD:          0	MERGED:          0	TO_CACHE:   14534817

LLC Dense regions hint to LLC: 0

RAW hits: 20202
Loads Generated: 71787567
Loads sent to L1D: 71767362
Stores Generated: 2952864
Stores sent to L1D: 2952864
Major fault: 0 Minor fault: 49083
Allocated PAGES: 49083

DRAM Statistics
 CHANNEL 0
 RQ ROW_BUFFER_HIT:   11530082  ROW_BUFFER_MISS:    3163118
 DBUS_CONGESTED:      15416
 WQ ROW_BUFFER_HIT:       4112  ROW_BUFFER_MISS:      18470  FULL:          0

 AVG_CONGESTED_CYCLE: 4
 All warmup complete: 2
Channel 0 Bank busy for read cycles: 0
Channel 0 Bank busy for write cycles: 0
Channel 0
Rank 0
0banks busy for read cycles: 69230992
0banks busy for write cycles: 14451
1banks busy for read cycles: 121987467
1banks busy for write cycles: 5072416
2banks busy for read cycles: 127762015
2banks busy for write cycles: 1605334
3banks busy for read cycles: 76600914
3banks busy for write cycles: 541875
4banks busy for read cycles: 42448010
4banks busy for write cycles: 162776
5banks busy for read cycles: 25358186
5banks busy for write cycles: 39257
6banks busy for read cycles: 13180781
6banks busy for write cycles: 2955
7banks busy for read cycles: 5750798
7banks busy for write cycles: 1430
8banks busy for read cycles: 3481940
8banks busy for write cycles: 0

CPU 0 Branch Prediction Accuracy: 99.9191% MPKI: 0.28299 Average ROB Occupancy at Mispredict: 303.617
Branch types
NOT_BRANCH: 128713628 64.3568%
BRANCH_DIRECT_JUMP: 685292 0.342646%
BRANCH_INDIRECT: 0 0%
BRANCH_CONDITIONAL: 69924204 34.9621%
BRANCH_DIRECT_CALL: 338401 0.169201%
BRANCH_INDIRECT_CALL: 0 0%
BRANCH_RETURN: 338401 0.169201%
BRANCH_OTHER: 0 0%

DRAM PAGES: 1048576
Allocated PAGES: 49083
