526208 bits of metadata so far, 405638 left out of 526336 total budget
table size is 13521 bits, 2253 entries for 5 bit, 1931 entries for 6 bit
526208 total bits (64.23KB)

*** ChampSim Multicore Out-of-Order Simulator ***

Warmup Instructions: 50000000
Simulation Instructions: 200000000
Number of CPUs: 1
LLC sets: 2048
LLC ways: 16
Off-chip DRAM Size: 4096 MB Channels: 1 Width: 64-bit Data Rate: 6400 MT/s
argv[0]: ./ChampSim/Berti/bin/multiperspective_perceptron-no-vberti-no-no-no-no-no-lru-lru-lru-srrip-drrip-lru-lru-lru-1core-no
argv[1]: -warmup_instructions
argv[2]: 50000000
argv[3]: -simulation_instructions
argv[4]: 200000000
argv[5]: -traces
argv[6]: traces/spec2k17_ten/620.omnetpp_s-141B.champsimtrace.xz
CPU 0 runs traces/spec2k17_ten/620.omnetpp_s-141B.champsimtrace.xz
.xz
CPU 0 Multiperspective perceptron branch predictor
BTB has LRU replacement policy
ITLB has LRU replacement policy
DTLB has LRU replacement policy
STLB has LRU replacement policy
L1I has LRU replacement policy
History Sets: 8
History Ways: 16
BERTI Size: 16
BERTI Stride Size: 16
L1D has LRU replacement policy
Initialize SRRIP state for L2C
Initialize DRRIP state for LLC
Heartbeat CPU 0 instructions: 10000001 cycles: 3913650 heartbeat IPC: 2.55516 cumulative IPC: 2.55516 (Simulation time: 0 hr 4 min 48 sec) 
Heartbeat CPU 0 instructions: 20000003 cycles: 7840275 heartbeat IPC: 2.54672 cumulative IPC: 2.55093 (Simulation time: 0 hr 6 min 55 sec) 
Heartbeat CPU 0 instructions: 30000000 cycles: 11771277 heartbeat IPC: 2.54388 cumulative IPC: 2.54858 (Simulation time: 0 hr 8 min 59 sec) 
Heartbeat CPU 0 instructions: 40000001 cycles: 15691006 heartbeat IPC: 2.5512 cumulative IPC: 2.54923 (Simulation time: 0 hr 14 min 40 sec) 
Heartbeat CPU 0 instructions: 50000003 cycles: 19624492 heartbeat IPC: 2.54227 cumulative IPC: 2.54784 (Simulation time: 0 hr 21 min 12 sec) 

Warmup complete CPU 0 instructions: 50000003 cycles: 19624492 (Simulation time: 0 hr 21 min 12 sec) 

Heartbeat CPU 0 instructions: 60000001 cycles: 63547803 heartbeat IPC: 0.227669 cumulative IPC: 0.227669 (Simulation time: 0 hr 30 min 14 sec) 
Heartbeat CPU 0 instructions: 70000000 cycles: 107830915 heartbeat IPC: 0.22582 cumulative IPC: 0.226741 (Simulation time: 0 hr 39 min 0 sec) 
Heartbeat CPU 0 instructions: 80000003 cycles: 151797998 heartbeat IPC: 0.227443 cumulative IPC: 0.226974 (Simulation time: 0 hr 47 min 45 sec) 
Heartbeat CPU 0 instructions: 90000003 cycles: 195968759 heartbeat IPC: 0.226394 cumulative IPC: 0.226829 (Simulation time: 0 hr 56 min 10 sec) 
Heartbeat CPU 0 instructions: 100000003 cycles: 239749946 heartbeat IPC: 0.228409 cumulative IPC: 0.227143 (Simulation time: 1 hr 4 min 48 sec) 
Heartbeat CPU 0 instructions: 110000000 cycles: 283810739 heartbeat IPC: 0.226959 cumulative IPC: 0.227112 (Simulation time: 1 hr 13 min 50 sec) 
Heartbeat CPU 0 instructions: 120000000 cycles: 327663532 heartbeat IPC: 0.228036 cumulative IPC: 0.227244 (Simulation time: 1 hr 21 min 38 sec) 
Heartbeat CPU 0 instructions: 130000000 cycles: 371609480 heartbeat IPC: 0.227552 cumulative IPC: 0.227282 (Simulation time: 1 hr 28 min 57 sec) 
Heartbeat CPU 0 instructions: 140000000 cycles: 415482380 heartbeat IPC: 0.227931 cumulative IPC: 0.227354 (Simulation time: 1 hr 34 min 46 sec) 
Heartbeat CPU 0 instructions: 150000003 cycles: 459755329 heartbeat IPC: 0.225872 cumulative IPC: 0.227205 (Simulation time: 1 hr 40 min 9 sec) 
Heartbeat CPU 0 instructions: 160000001 cycles: 503714964 heartbeat IPC: 0.227481 cumulative IPC: 0.22723 (Simulation time: 1 hr 44 min 9 sec) 
Heartbeat CPU 0 instructions: 170000000 cycles: 547317244 heartbeat IPC: 0.229346 cumulative IPC: 0.227405 (Simulation time: 1 hr 48 min 3 sec) 
Heartbeat CPU 0 instructions: 180000000 cycles: 591028548 heartbeat IPC: 0.228774 cumulative IPC: 0.22751 (Simulation time: 1 hr 50 min 47 sec) 
Heartbeat CPU 0 instructions: 190000000 cycles: 634710748 heartbeat IPC: 0.228926 cumulative IPC: 0.22761 (Simulation time: 1 hr 53 min 5 sec) 
Heartbeat CPU 0 instructions: 200000002 cycles: 679352818 heartbeat IPC: 0.224004 cumulative IPC: 0.227366 (Simulation time: 1 hr 54 min 56 sec) 
Heartbeat CPU 0 instructions: 210000000 cycles: 723568557 heartbeat IPC: 0.226164 cumulative IPC: 0.227291 (Simulation time: 1 hr 56 min 16 sec) 
Heartbeat CPU 0 instructions: 220000000 cycles: 767920752 heartbeat IPC: 0.225468 cumulative IPC: 0.227183 (Simulation time: 1 hr 57 min 23 sec) 
Heartbeat CPU 0 instructions: 230000001 cycles: 811896730 heartbeat IPC: 0.227397 cumulative IPC: 0.227195 (Simulation time: 1 hr 58 min 29 sec) 
Heartbeat CPU 0 instructions: 240000001 cycles: 855932486 heartbeat IPC: 0.227088 cumulative IPC: 0.227189 (Simulation time: 1 hr 59 min 34 sec) 
Heartbeat CPU 0 instructions: 250000000 cycles: 899320071 heartbeat IPC: 0.230481 cumulative IPC: 0.227351 (Simulation time: 2 hr 0 min 37 sec) 
Finished CPU 0 instructions: 200000001 cycles: 879695580 cumulative IPC: 0.227351 (Simulation time: 2 hr 0 min 37 sec) 

ChampSim completed all CPUs

Region of Interest Statistics

CPU 0 cumulative IPC: 0.227351 instructions: 200000001 cycles: 879695580
ITLB TOTAL     ACCESS:   33721136  HIT:   33430998  MISS:     290138  HIT %:    99.1396  MISS %:   0.860404   MPKI: 1.45069
ITLB LOAD TRANSLATION ACCESS:   33721136  HIT:   33430998  MISS:     290138  HIT %:    99.1396  MISS %:   0.860404   MPKI: 1.45069
ITLB PREFETCH  REQUESTED:          0  ISSUED:          0  USEFUL:          0  USELESS:          0
ITLB USEFUL LOAD PREFETCHES:          0 PREFETCH ISSUED TO LOWER LEVEL:          0  ACCURACY: -nan
ITLB TIMELY PREFETCHES:          0 LATE PREFETCHES: 0 DROPPED PREFETCHES: 0
ITLB PREFETCHES SAME FILL-ORIGIN LEVEL: 0 DIFFERENT FILL-ORIGIN LEVEL: 0
ITLB AVERAGE MISS LATENCY: 9.67263 cycles
ITLB RQ	ACCESS:   38999008	FORWARD:          0	MERGED:    5220733	TO_CACHE:   33778275

DTLB TOTAL     ACCESS:   76814607  HIT:   72653264  MISS:    4161343  HIT %:    94.5826  MISS %:    5.41739   MPKI: 20.8067
DTLB LOAD TRANSLATION ACCESS:   76814607  HIT:   72653264  MISS:    4161343  HIT %:    94.5826  MISS %:    5.41739   MPKI: 20.8067
DTLB PREFETCH  REQUESTED:          0  ISSUED:          0  USEFUL:          0  USELESS:          0
DTLB USEFUL LOAD PREFETCHES:          0 PREFETCH ISSUED TO LOWER LEVEL:          0  ACCURACY: -nan
DTLB TIMELY PREFETCHES:          0 LATE PREFETCHES: 0 DROPPED PREFETCHES: 0
DTLB PREFETCHES SAME FILL-ORIGIN LEVEL: 0 DIFFERENT FILL-ORIGIN LEVEL: 0
DTLB AVERAGE MISS LATENCY: 24.5922 cycles
DTLB RQ	ACCESS:   87167235	FORWARD:          0	MERGED:   10248371	TO_CACHE:   76918864

STLB TOTAL     ACCESS:    4497195  HIT:    3518789  MISS:     978406  HIT %:    78.2441  MISS %:    21.7559   MPKI: 4.89203
STLB LOAD TRANSLATION ACCESS:    4451481  HIT:    3483869  MISS:     967612  HIT %:    78.2631  MISS %:    21.7369   MPKI: 4.83806
STLB TRANSLATION FROM L1D PREFETCHER ACCESS:      45714  HIT:      34920  MISS:      10794  HIT %:     76.388  MISS %:     23.612   MPKI: 0.05397
STLB PREFETCH  REQUESTED:          0  ISSUED:          0  USEFUL:       6599  USELESS:       4196
STLB USEFUL LOAD PREFETCHES:       6599 PREFETCH ISSUED TO LOWER LEVEL:          0  ACCURACY: inf
STLB TIMELY PREFETCHES:       6599 LATE PREFETCHES: 0 DROPPED PREFETCHES: 11567
STLB PREFETCHES SAME FILL-ORIGIN LEVEL: 0 DIFFERENT FILL-ORIGIN LEVEL: 0
STLB AVERAGE MISS LATENCY: 66.7685 cycles
STLB RQ	ACCESS:    4545708	FORWARD:          0	MERGED:      36890	TO_CACHE:    4508818

STLB Hit, L1D data hit: 0
STLB Hit, L2C data hit: 0
STLB Hit, LLC data hit: 0
STLB Hit, LLC data miss: 0
STLB STLB hints to L2: 0
L1D TOTAL     ACCESS:   85938336  HIT:   82230280  MISS:    3708056  HIT %:    95.6852  MISS %:    4.31479   MPKI: 18.5403
L1D LOAD      ACCESS:   50071323  HIT:   46854400  MISS:    3216923  HIT %:    93.5753  MISS %:    6.42468   MPKI: 16.0846
L1D RFO       ACCESS:   35847558  HIT:   35364127  MISS:     483431  HIT %:    98.6514  MISS %:    1.34857   MPKI: 2.41715
L1D PREFETCH  ACCESS:      19455  HIT:      11753  MISS:       7702  HIT %:    60.4112  MISS %:    39.5888   MPKI: 0.03851
L1D PREFETCH  REQUESTED:     189422  ISSUED:     189422  USEFUL:       3691  USELESS:       4011
L1D USEFUL LOAD PREFETCHES:       3691 PREFETCH ISSUED TO LOWER LEVEL:      68624  ACCURACY: 5.37858
L1D TIMELY PREFETCHES:       3691 LATE PREFETCHES: 5 DROPPED PREFETCHES: 13340
L1D PREFETCHES SAME FILL-ORIGIN LEVEL: 7707 DIFFERENT FILL-ORIGIN LEVEL: 60917
L1D AVERAGE MISS LATENCY: 131.263 cycles
L1D RQ	ACCESS:   63372148	FORWARD:          0	MERGED:   10228288	TO_CACHE:   50455238
L1D WQ	ACCESS:   37145107	FORWARD:    2688622	MERGED:     433110	TO_CACHE:   36711997
L1D PQ	ACCESS:      95195	FORWARD:          0	MERGED:        968	TO_CACHE:      94227

L1D UNIQUE REGIONS ACCESSED: 0
L1D REGIONS CONFLICTS: 0
L1D Cross Page Prefetch Requests: 79308
L1D Same Page Prefetch Requests: 59446
L1D ROI Sum of L1D PQ occupancy: 2471933
L1D PREFETCHES PUSHED FROM L2C: 0
L1I TOTAL     ACCESS:   38952884  HIT:   38831946  MISS:     120938  HIT %:    99.6895  MISS %:   0.310473   MPKI: 0.60469
L1I LOAD      ACCESS:   38952884  HIT:   38831946  MISS:     120938  HIT %:    99.6895  MISS %:   0.310473   MPKI: 0.60469
L1I PREFETCH  REQUESTED:          0  ISSUED:          0  USEFUL:          0  USELESS:          0
L1I USEFUL LOAD PREFETCHES:          0 PREFETCH ISSUED TO LOWER LEVEL:          0  ACCURACY: -nan
L1I TIMELY PREFETCHES:          0 LATE PREFETCHES: 0 DROPPED PREFETCHES: 0
L1I PREFETCHES SAME FILL-ORIGIN LEVEL: 0 DIFFERENT FILL-ORIGIN LEVEL: 0
L1I AVERAGE MISS LATENCY: 24.7844 cycles
L1I RQ	ACCESS:   57647803	FORWARD:          0	MERGED:   18648795	TO_CACHE:   38999008

BTB TOTAL     ACCESS:   32873212  HIT:   30947949  MISS:    1925263  HIT %:    94.1434  MISS %:    5.85663   MPKI: 9.62631
BTB BRANCH_DIRECT_JUMP	ACCESS:    2330259  HIT:    2330115  MISS:        144
BTB BRANCH_INDIRECT	ACCESS:     674227  HIT:     571148  MISS:     103079
BTB BRANCH_CONDITIONAL	ACCESS:   17721647  HIT:   17721118  MISS:        529
BTB BRANCH_DIRECT_CALL	ACCESS:    3701835  HIT:    3701543  MISS:        292
BTB BRANCH_INDIRECT_CALL	ACCESS:    2371706  HIT:    2363088  MISS:       8618
BTB BRANCH_RETURN	ACCESS:    6073538  HIT:    4260937  MISS:    1812601
BTB BRANCH_OTHER ACCESS:          0  HIT:          0  MISS:          0

L2C TOTAL     ACCESS:    7128169  HIT:    3710572  MISS:    3417597  HIT %:    52.0551  MISS %:    47.9449   MPKI: 17.088
L2C LOAD      ACCESS:    3337795  HIT:     971655  MISS:    2366140  HIT %:    29.1107  MISS %:    70.8893   MPKI: 11.8307
L2C DATA LOAD MPKI: 11.7404
L2C INSTRUCTION LOAD MPKI: 0.090255
L2C RFO       ACCESS:     483427  HIT:     124679  MISS:     358748  HIT %:    25.7907  MISS %:    74.2093   MPKI: 1.79374
L2C PREFETCH  ACCESS:      68517  HIT:      15415  MISS:      53102  HIT %:    22.4981  MISS %:    77.5019   MPKI: 0.26551
L2C DATA PREFETCH MPKI: 0.26551
L2C INSTRUCTION PREFETCH MPKI: 0
L2C WRITEBACK ACCESS:    1816251  HIT:    1779789  MISS:      36462  HIT %:    97.9925  MISS %:    2.00754   MPKI: 0.18231
L2C LOAD TRANSLATION ACCESS:    1388208  HIT:     787055  MISS:     601153  HIT %:    56.6958  MISS %:    43.3042   MPKI: 3.00576
L2C TRANSLATION FROM L1D PREFETCHER ACCESS:      33971  HIT:      31979  MISS:       1992  HIT %:    94.1362  MISS %:    5.86383   MPKI: 0.00996
L2C PREFETCH  REQUESTED:          0  ISSUED:          0  USEFUL:      11611  USELESS:      43540
L2C USEFUL LOAD PREFETCHES:      11611 PREFETCH ISSUED TO LOWER LEVEL:      53119  ACCURACY: 21.8585
L2C TIMELY PREFETCHES:      11611 LATE PREFETCHES: 17 DROPPED PREFETCHES: 0
L2C PREFETCHES SAME FILL-ORIGIN LEVEL: 48830 DIFFERENT FILL-ORIGIN LEVEL: 0
L2C AVERAGE MISS LATENCY: 139.741 cycles
L2C RQ	ACCESS:    5243465	FORWARD:          0	MERGED:          0	TO_CACHE:    5243401
L2C WQ	ACCESS:    1816251	FORWARD:         64	MERGED:          0	TO_CACHE:    1816251
L2C PQ	ACCESS:      68624	FORWARD:          0	MERGED:          0	TO_CACHE:      68624

L2C Instructions Evicting Data 14736
L2C Translations Evicting Data 492651
L2C Data Evicting Data 2257981
L2C Instructions Evicting Instructions 351
L2C Translations Evicting Instructions 3053
L2C Data Evicting Instructions 14363
L2C Instructions Evicting Translations 2964
L2C Translations Evicting Translations 107441
L2C Data Evicting Translations 487595
L2C Dense regions hint from L2: 0
PSCL5 TOTAL     ACCESS:     989973  HIT:     989973  MISS:          0  HIT %:        100  MISS %:          0   MPKI: 0
PSCL5 LOAD TRANSLATION ACCESS:     967612  HIT:     967612  MISS:          0  HIT %:        100  MISS %:          0   MPKI: 0
PSCL5 TRANSLATION FROM L1D PREFETCHER ACCESS:      22361  HIT:      22361  MISS:          0  HIT %:        100  MISS %:          0   MPKI: 0
PSCL5 PREFETCH  REQUESTED:          0  ISSUED:          0  USEFUL:          0  USELESS:          0
PSCL5 USEFUL LOAD PREFETCHES:          0 PREFETCH ISSUED TO LOWER LEVEL:          0  ACCURACY: -nan
PSCL5 TIMELY PREFETCHES:          0 LATE PREFETCHES: 0 DROPPED PREFETCHES: 0
PSCL5 PREFETCHES SAME FILL-ORIGIN LEVEL: 0 DIFFERENT FILL-ORIGIN LEVEL: 0

PSCL4 TOTAL     ACCESS:     989973  HIT:     989973  MISS:          0  HIT %:        100  MISS %:          0   MPKI: 0
PSCL4 LOAD TRANSLATION ACCESS:     967612  HIT:     967612  MISS:          0  HIT %:        100  MISS %:          0   MPKI: 0
PSCL4 TRANSLATION FROM L1D PREFETCHER ACCESS:      22361  HIT:      22361  MISS:          0  HIT %:        100  MISS %:          0   MPKI: 0
PSCL4 PREFETCH  REQUESTED:          0  ISSUED:          0  USEFUL:          0  USELESS:          0
PSCL4 USEFUL LOAD PREFETCHES:          0 PREFETCH ISSUED TO LOWER LEVEL:          0  ACCURACY: -nan
PSCL4 TIMELY PREFETCHES:          0 LATE PREFETCHES: 0 DROPPED PREFETCHES: 0
PSCL4 PREFETCHES SAME FILL-ORIGIN LEVEL: 0 DIFFERENT FILL-ORIGIN LEVEL: 0

PSCL3 TOTAL     ACCESS:     989973  HIT:     989973  MISS:          0  HIT %:        100  MISS %:          0   MPKI: 0
PSCL3 LOAD TRANSLATION ACCESS:     967612  HIT:     967612  MISS:          0  HIT %:        100  MISS %:          0   MPKI: 0
PSCL3 TRANSLATION FROM L1D PREFETCHER ACCESS:      22361  HIT:      22361  MISS:          0  HIT %:        100  MISS %:          0   MPKI: 0
PSCL3 PREFETCH  REQUESTED:          0  ISSUED:          0  USEFUL:          0  USELESS:          0
PSCL3 USEFUL LOAD PREFETCHES:          0 PREFETCH ISSUED TO LOWER LEVEL:          0  ACCURACY: -nan
PSCL3 TIMELY PREFETCHES:          0 LATE PREFETCHES: 0 DROPPED PREFETCHES: 0
PSCL3 PREFETCHES SAME FILL-ORIGIN LEVEL: 0 DIFFERENT FILL-ORIGIN LEVEL: 0

PSCL2 TOTAL     ACCESS:     979146  HIT:     557670  MISS:     421476  HIT %:    56.9547  MISS %:    43.0453   MPKI: 2.10738
PSCL2 LOAD TRANSLATION ACCESS:     968492  HIT:     547016  MISS:     421476  HIT %:    56.4812  MISS %:    43.5188   MPKI: 2.10738
PSCL2 TRANSLATION FROM L1D PREFETCHER ACCESS:      10654  HIT:      10654  MISS:          0  HIT %:        100  MISS %:          0   MPKI: 0
PSCL2 PREFETCH  REQUESTED:          0  ISSUED:          0  USEFUL:          0  USELESS:          0
PSCL2 USEFUL LOAD PREFETCHES:          0 PREFETCH ISSUED TO LOWER LEVEL:          0  ACCURACY: -nan
PSCL2 TIMELY PREFETCHES:          0 LATE PREFETCHES: 0 DROPPED PREFETCHES: 0
PSCL2 PREFETCHES SAME FILL-ORIGIN LEVEL: 0 DIFFERENT FILL-ORIGIN LEVEL: 0

LLC TOTAL     ACCESS:    4664386  HIT:    2349540  MISS:    2314846  HIT %:    50.3719  MISS %:    49.6281   MPKI: 11.5742
LLC LOAD      ACCESS:    2366125  HIT:     510728  MISS:    1855397  HIT %:     21.585  MISS %:     78.415   MPKI: 9.27698
LLC RFO       ACCESS:     358745  HIT:     105758  MISS:     252987  HIT %:      29.48  MISS %:      70.52   MPKI: 1.26493
LLC PREFETCH  ACCESS:      53119  HIT:       2781  MISS:      50338  HIT %:    5.23541  MISS %:    94.7646   MPKI: 0.25169
LLC WRITEBACK ACCESS:    1283252  HIT:    1229531  MISS:      53721  HIT %:    95.8137  MISS %:    4.18632   MPKI: 0.268605
LLC LOAD TRANSLATION ACCESS:     601153  HIT:     499282  MISS:     101871  HIT %:    83.0541  MISS %:    16.9459   MPKI: 0.509355
LLC TRANSLATION FROM L1D PREFETCHER ACCESS:       1992  HIT:       1460  MISS:        532  HIT %:    73.2932  MISS %:    26.7068   MPKI: 0.00266
LLC PREFETCH  REQUESTED:          0  ISSUED:          0  USEFUL:       1308  USELESS:      50015
LLC USEFUL LOAD PREFETCHES:       1308 PREFETCH ISSUED TO LOWER LEVEL:      50338  ACCURACY: 2.59843
LLC TIMELY PREFETCHES:       1308 LATE PREFETCHES: 0 DROPPED PREFETCHES: 0
LLC PREFETCHES SAME FILL-ORIGIN LEVEL: 0 DIFFERENT FILL-ORIGIN LEVEL: 0
LLC AVERAGE MISS LATENCY: 162.477 cycles
LLC RQ	ACCESS:    3328016	FORWARD:          0	MERGED:          0	TO_CACHE:    3328015
LLC WQ	ACCESS:    1283252	FORWARD:          1	MERGED:          0	TO_CACHE:    1283252
LLC PQ	ACCESS:      53119	FORWARD:          0	MERGED:          0	TO_CACHE:      53119

LLC Dense regions hint to LLC: 0

RAW hits: 3500388
Loads Generated: 66872536
Loads sent to L1D: 63372148
Stores Generated: 37145093
Stores sent to L1D: 37145107
Major fault: 0 Minor fault: 53031
Allocated PAGES: 53031

DRAM Statistics
 CHANNEL 0
 RQ ROW_BUFFER_HIT:     139432  ROW_BUFFER_MISS:    2121691
 DBUS_CONGESTED:        408
 WQ ROW_BUFFER_HIT:     254818  ROW_BUFFER_MISS:     739793  FULL:          0

 AVG_CONGESTED_CYCLE: 5
 All warmup complete: 2
Channel 0 Bank busy for read cycles: 0
Channel 0 Bank busy for write cycles: 0
Channel 0
Rank 0
0banks busy for read cycles: 508834882
0banks busy for write cycles: 518673
1banks busy for read cycles: 178159162
1banks busy for write cycles: 81771286
2banks busy for read cycles: 46982013
2banks busy for write cycles: 32391849
3banks busy for read cycles: 11724682
3banks busy for write cycles: 10937856
4banks busy for read cycles: 3704494
4banks busy for write cycles: 3153928
5banks busy for read cycles: 316597
5banks busy for write cycles: 778298
6banks busy for read cycles: 110075
6banks busy for write cycles: 162327
7banks busy for read cycles: 77799
7banks busy for write cycles: 27823
8banks busy for read cycles: 40523
8banks busy for write cycles: 3314

CPU 0 Branch Prediction Accuracy: 97.5529% MPKI: 3.28369 Average ROB Occupancy at Mispredict: 39.314
Branch types
NOT_BRANCH: 158010834 79.0054%
BRANCH_DIRECT_JUMP: 2330259 1.16513%
BRANCH_INDIRECT: 674227 0.337113%
BRANCH_CONDITIONAL: 26837260 13.4186%
BRANCH_DIRECT_CALL: 3701835 1.85092%
BRANCH_INDIRECT_CALL: 2371706 1.18585%
BRANCH_RETURN: 6073538 3.03677%
BRANCH_OTHER: 0 0%

DRAM PAGES: 1048576
Allocated PAGES: 53031
