 (TOTAL 523355 bits 511 Kbits) 
*** ChampSim Multicore Out-of-Order Simulator ***

Warmup Instructions: 50000000
Simulation Instructions: 200000000
Number of CPUs: 1
LLC sets: 2048
LLC ways: 16
Off-chip DRAM Size: 4096 MB Channels: 1 Width: 64-bit Data Rate: 6400 MT/s
argv[0]: ./ChampSim/Berti/bin/tagescl-no-vberti-no-no-no-no-no-lru-lru-lru-srrip-drrip-lru-lru-lru-1core-no
argv[1]: -warmup_instructions
argv[2]: 50000000
argv[3]: -simulation_instructions
argv[4]: 200000000
argv[5]: -traces
argv[6]: traces/spec2k17_ten/638.imagick_s-10316B.champsimtrace.xz
CPU 0 runs traces/spec2k17_ten/638.imagick_s-10316B.champsimtrace.xz
.xz
CPU 0 Tage branch predictor
BTB has LRU replacement policy
ITLB has LRU replacement policy
DTLB has LRU replacement policy
STLB has LRU replacement policy
L1I has LRU replacement policy
History Sets: 8
History Ways: 16
BERTI Size: 16
BERTI Stride Size: 16
L1D has LRU replacement policy
Initialize SRRIP state for L2C
Initialize DRRIP state for LLC
Heartbeat CPU 0 instructions: 10000001 cycles: 2566507 heartbeat IPC: 3.89635 cumulative IPC: 3.89635 (Simulation time: 0 hr 5 min 56 sec) 
Heartbeat CPU 0 instructions: 20000002 cycles: 5132677 heartbeat IPC: 3.89686 cumulative IPC: 3.8966 (Simulation time: 0 hr 10 min 51 sec) 
Heartbeat CPU 0 instructions: 30000000 cycles: 7698867 heartbeat IPC: 3.89683 cumulative IPC: 3.89668 (Simulation time: 0 hr 16 min 38 sec) 
Heartbeat CPU 0 instructions: 40000001 cycles: 10265101 heartbeat IPC: 3.89676 cumulative IPC: 3.8967 (Simulation time: 0 hr 23 min 12 sec) 
Heartbeat CPU 0 instructions: 50000002 cycles: 12831355 heartbeat IPC: 3.89673 cumulative IPC: 3.8967 (Simulation time: 0 hr 28 min 22 sec) 

Warmup complete CPU 0 instructions: 50000002 cycles: 12831355 (Simulation time: 0 hr 28 min 22 sec) 

Heartbeat CPU 0 instructions: 60000000 cycles: 22121473 heartbeat IPC: 1.07641 cumulative IPC: 1.07641 (Simulation time: 0 hr 34 min 55 sec) 
Heartbeat CPU 0 instructions: 70000000 cycles: 31411454 heartbeat IPC: 1.07643 cumulative IPC: 1.07642 (Simulation time: 0 hr 39 min 58 sec) 
Heartbeat CPU 0 instructions: 80000000 cycles: 40701977 heartbeat IPC: 1.07637 cumulative IPC: 1.0764 (Simulation time: 0 hr 46 min 7 sec) 
Heartbeat CPU 0 instructions: 90000000 cycles: 49992199 heartbeat IPC: 1.0764 cumulative IPC: 1.0764 (Simulation time: 0 hr 52 min 6 sec) 
Heartbeat CPU 0 instructions: 100000002 cycles: 59282397 heartbeat IPC: 1.0764 cumulative IPC: 1.0764 (Simulation time: 0 hr 58 min 3 sec) 
Heartbeat CPU 0 instructions: 110000000 cycles: 68572395 heartbeat IPC: 1.07643 cumulative IPC: 1.07641 (Simulation time: 1 hr 2 min 53 sec) 
Heartbeat CPU 0 instructions: 120000000 cycles: 77862597 heartbeat IPC: 1.0764 cumulative IPC: 1.07641 (Simulation time: 1 hr 8 min 16 sec) 
Heartbeat CPU 0 instructions: 130000000 cycles: 87153060 heartbeat IPC: 1.07637 cumulative IPC: 1.0764 (Simulation time: 1 hr 14 min 44 sec) 
Heartbeat CPU 0 instructions: 140000000 cycles: 96442989 heartbeat IPC: 1.07643 cumulative IPC: 1.07641 (Simulation time: 1 hr 20 min 45 sec) 
Heartbeat CPU 0 instructions: 150000001 cycles: 105733359 heartbeat IPC: 1.07638 cumulative IPC: 1.0764 (Simulation time: 1 hr 27 min 18 sec) 
Heartbeat CPU 0 instructions: 160000000 cycles: 115023713 heartbeat IPC: 1.07639 cumulative IPC: 1.0764 (Simulation time: 1 hr 32 min 58 sec) 
Heartbeat CPU 0 instructions: 170000000 cycles: 124314362 heartbeat IPC: 1.07635 cumulative IPC: 1.0764 (Simulation time: 1 hr 38 min 45 sec) 
Heartbeat CPU 0 instructions: 180000001 cycles: 133604276 heartbeat IPC: 1.07644 cumulative IPC: 1.0764 (Simulation time: 1 hr 43 min 49 sec) 
Heartbeat CPU 0 instructions: 190000003 cycles: 142894294 heartbeat IPC: 1.07642 cumulative IPC: 1.0764 (Simulation time: 1 hr 48 min 13 sec) 
Heartbeat CPU 0 instructions: 200000000 cycles: 152184111 heartbeat IPC: 1.07645 cumulative IPC: 1.0764 (Simulation time: 1 hr 52 min 21 sec) 
Heartbeat CPU 0 instructions: 210000000 cycles: 161474541 heartbeat IPC: 1.07638 cumulative IPC: 1.0764 (Simulation time: 1 hr 55 min 50 sec) 
Heartbeat CPU 0 instructions: 220000000 cycles: 170764710 heartbeat IPC: 1.07641 cumulative IPC: 1.0764 (Simulation time: 1 hr 58 min 51 sec) 
Heartbeat CPU 0 instructions: 230000003 cycles: 180055103 heartbeat IPC: 1.07638 cumulative IPC: 1.0764 (Simulation time: 2 hr 3 min 1 sec) 
Heartbeat CPU 0 instructions: 240000002 cycles: 189345204 heartbeat IPC: 1.07641 cumulative IPC: 1.0764 (Simulation time: 2 hr 6 min 29 sec) 
Heartbeat CPU 0 instructions: 250000000 cycles: 198636235 heartbeat IPC: 1.07631 cumulative IPC: 1.0764 (Simulation time: 2 hr 10 min 26 sec) 
Finished CPU 0 instructions: 200000000 cycles: 185804890 cumulative IPC: 1.0764 (Simulation time: 2 hr 10 min 26 sec) 

ChampSim completed all CPUs

Region of Interest Statistics

CPU 0 cumulative IPC: 1.0764 instructions: 200000000 cycles: 185804890
ITLB TOTAL     ACCESS:   27571321  HIT:   27571321  MISS:          0  HIT %:        100  MISS %:          0   MPKI: 0
ITLB LOAD TRANSLATION ACCESS:   27571321  HIT:   27571321  MISS:          0  HIT %:        100  MISS %:          0   MPKI: 0
ITLB PREFETCH  REQUESTED:          0  ISSUED:          0  USEFUL:          0  USELESS:          0
ITLB USEFUL LOAD PREFETCHES:          0 PREFETCH ISSUED TO LOWER LEVEL:          0  ACCURACY: -nan
ITLB TIMELY PREFETCHES:          0 LATE PREFETCHES: 0 DROPPED PREFETCHES: 0
ITLB PREFETCHES SAME FILL-ORIGIN LEVEL: 0 DIFFERENT FILL-ORIGIN LEVEL: 0
ITLB AVERAGE MISS LATENCY: -nan cycles
ITLB RQ	ACCESS:   34385829	FORWARD:          0	MERGED:    6814509	TO_CACHE:   27571320

DTLB TOTAL     ACCESS:   20047437  HIT:   19954482  MISS:      92955  HIT %:    99.5363  MISS %:   0.463675   MPKI: 0.464775
DTLB LOAD TRANSLATION ACCESS:   20047437  HIT:   19954482  MISS:      92955  HIT %:    99.5363  MISS %:   0.463675   MPKI: 0.464775
DTLB PREFETCH  REQUESTED:          0  ISSUED:          0  USEFUL:          0  USELESS:          0
DTLB USEFUL LOAD PREFETCHES:          0 PREFETCH ISSUED TO LOWER LEVEL:          0  ACCURACY: -nan
DTLB TIMELY PREFETCHES:          0 LATE PREFETCHES: 0 DROPPED PREFETCHES: 0
DTLB PREFETCHES SAME FILL-ORIGIN LEVEL: 0 DIFFERENT FILL-ORIGIN LEVEL: 0
DTLB AVERAGE MISS LATENCY: 9.04826 cycles
DTLB RQ	ACCESS:   20117363	FORWARD:          0	MERGED:      69139	TO_CACHE:   20048224

STLB TOTAL     ACCESS:   21134264  HIT:   21134142  MISS:        122  HIT %:    99.9994  MISS %: 0.000577262   MPKI: 0.00061
STLB LOAD TRANSLATION ACCESS:      92955  HIT:      92833  MISS:        122  HIT %:    99.8688  MISS %:   0.131246   MPKI: 0.00061
STLB TRANSLATION FROM L1D PREFETCHER ACCESS:   21041309  HIT:   21041309  MISS:          0  HIT %:        100  MISS %:          0   MPKI: 0
STLB PREFETCH  REQUESTED:          0  ISSUED:          0  USEFUL:          0  USELESS:          0
STLB USEFUL LOAD PREFETCHES:          0 PREFETCH ISSUED TO LOWER LEVEL:          0  ACCURACY: -nan
STLB TIMELY PREFETCHES:          0 LATE PREFETCHES: 46 DROPPED PREFETCHES: 197487
STLB PREFETCHES SAME FILL-ORIGIN LEVEL: 0 DIFFERENT FILL-ORIGIN LEVEL: 0
STLB AVERAGE MISS LATENCY: 115.115 cycles
STLB RQ	ACCESS:  103432680	FORWARD:          0	MERGED:   82100464	TO_CACHE:   21332216

STLB Hit, L1D data hit: 0
STLB Hit, L2C data hit: 0
STLB Hit, LLC data hit: 0
STLB Hit, LLC data miss: 0
STLB STLB hints to L2: 0
L1D TOTAL     ACCESS:  110813988  HIT:  108751806  MISS:    2062182  HIT %:    98.1391  MISS %:    1.86094   MPKI: 10.3109
L1D LOAD      ACCESS:   20100054  HIT:   20029213  MISS:      70841  HIT %:    99.6476  MISS %:   0.352442   MPKI: 0.354205
L1D RFO       ACCESS:       9364  HIT:       8178  MISS:       1186  HIT %:    87.3345  MISS %:    12.6655   MPKI: 0.00593
L1D PREFETCH  ACCESS:   90704570  HIT:   88714415  MISS:    1990155  HIT %:    97.8059  MISS %:    2.19411   MPKI: 9.95078
L1D PREFETCH  REQUESTED:  223914524  ISSUED:  207035087  USEFUL:    1708009  USELESS:     282147
L1D USEFUL LOAD PREFETCHES:    1708009 PREFETCH ISSUED TO LOWER LEVEL:   14215744  ACCURACY: 12.0149
L1D TIMELY PREFETCHES:    1708009 LATE PREFETCHES: 4564 DROPPED PREFETCHES: 407413
L1D PREFETCHES SAME FILL-ORIGIN LEVEL: 1994719 DIFFERENT FILL-ORIGIN LEVEL: 12221025
L1D AVERAGE MISS LATENCY: 15.1689 cycles
L1D RQ	ACCESS:   34513898	FORWARD:          0	MERGED:   14406016	TO_CACHE:   20107821
L1D WQ	ACCESS:      10044	FORWARD:         61	MERGED:        502	TO_CACHE:       9542
L1D PQ	ACCESS:  103695362	FORWARD:          0	MERGED:     355637	TO_CACHE:  103339725

L1D UNIQUE REGIONS ACCESSED: 0
L1D REGIONS CONFLICTS: 0
L1D Cross Page Prefetch Requests: 17661292
L1D Same Page Prefetch Requests: 108774762
L1D ROI Sum of L1D PQ occupancy: 1747327080
L1D PREFETCHES PUSHED FROM L2C: 0
L1I TOTAL     ACCESS:   34385830  HIT:   34385830  MISS:          0  HIT %:        100  MISS %:          0   MPKI: 0
L1I LOAD      ACCESS:   34385830  HIT:   34385830  MISS:          0  HIT %:        100  MISS %:          0   MPKI: 0
L1I PREFETCH  REQUESTED:          0  ISSUED:          0  USEFUL:          0  USELESS:          0
L1I USEFUL LOAD PREFETCHES:          0 PREFETCH ISSUED TO LOWER LEVEL:          0  ACCURACY: -nan
L1I TIMELY PREFETCHES:          0 LATE PREFETCHES: 0 DROPPED PREFETCHES: 0
L1I PREFETCHES SAME FILL-ORIGIN LEVEL: 0 DIFFERENT FILL-ORIGIN LEVEL: 0
L1I AVERAGE MISS LATENCY: -nan cycles
L1I RQ	ACCESS:   55023468	FORWARD:          0	MERGED:   20637639	TO_CACHE:   34385829

BTB TOTAL     ACCESS:   13821456  HIT:   13821432  MISS:         24  HIT %:    99.9998  MISS %: 0.000173643   MPKI: 0.00012
BTB BRANCH_DIRECT_JUMP	ACCESS:       1117  HIT:       1114  MISS:          3
BTB BRANCH_INDIRECT	ACCESS:          0  HIT:          0  MISS:          0
BTB BRANCH_CONDITIONAL	ACCESS:   13820339  HIT:   13820318  MISS:         21
BTB BRANCH_DIRECT_CALL	ACCESS:          0  HIT:          0  MISS:          0
BTB BRANCH_INDIRECT_CALL	ACCESS:          0  HIT:          0  MISS:          0
BTB BRANCH_RETURN	ACCESS:          0  HIT:          0  MISS:          0
BTB BRANCH_OTHER ACCESS:          0  HIT:          0  MISS:          0

L2C TOTAL     ACCESS:   14481445  HIT:   14471766  MISS:       9679  HIT %:    99.9332  MISS %:  0.0668373   MPKI: 0.048395
L2C LOAD      ACCESS:      66277  HIT:      66197  MISS:         80  HIT %:    99.8793  MISS %:   0.120706   MPKI: 0.0004
L2C DATA LOAD MPKI: 0.0004
L2C INSTRUCTION LOAD MPKI: 0
L2C RFO       ACCESS:       1186  HIT:       1116  MISS:         70  HIT %:    94.0978  MISS %:    5.90219   MPKI: 0.00035
L2C PREFETCH  ACCESS:   14213467  HIT:   14204040  MISS:       9427  HIT %:    99.9337  MISS %:  0.0663244   MPKI: 0.047135
L2C DATA PREFETCH MPKI: 0.047135
L2C INSTRUCTION PREFETCH MPKI: 0
L2C WRITEBACK ACCESS:       2860  HIT:       2860  MISS:          0  HIT %:        100  MISS %:          0   MPKI: 0
L2C LOAD TRANSLATION ACCESS:        122  HIT:        121  MISS:          1  HIT %:    99.1803  MISS %:   0.819672   MPKI: 5e-06
L2C TRANSLATION FROM L1D PREFETCHER ACCESS:     197533  HIT:     197432  MISS:        101  HIT %:    99.9489  MISS %:  0.0511307   MPKI: 0.000505
L2C PREFETCH  REQUESTED:          0  ISSUED:          0  USEFUL:       7739  USELESS:       2314
L2C USEFUL LOAD PREFETCHES:       7739 PREFETCH ISSUED TO LOWER LEVEL:       9427  ACCURACY: 82.094
L2C TIMELY PREFETCHES:       7739 LATE PREFETCHES: 0 DROPPED PREFETCHES: 0
L2C PREFETCHES SAME FILL-ORIGIN LEVEL: 7869 DIFFERENT FILL-ORIGIN LEVEL: 0
L2C AVERAGE MISS LATENCY: 153.814 cycles
L2C RQ	ACCESS:     265118	FORWARD:          0	MERGED:          0	TO_CACHE:     265118
L2C WQ	ACCESS:       2860	FORWARD:          0	MERGED:          0	TO_CACHE:       2860
L2C PQ	ACCESS:   14215744	FORWARD:          0	MERGED:          0	TO_CACHE:   14215744

L2C Instructions Evicting Data 0
L2C Translations Evicting Data 100
L2C Data Evicting Data 8033
L2C Instructions Evicting Instructions 0
L2C Translations Evicting Instructions 0
L2C Data Evicting Instructions 18
L2C Instructions Evicting Translations 0
L2C Translations Evicting Translations 0
L2C Data Evicting Translations 161
L2C Dense regions hint from L2: 0
PSCL5 TOTAL     ACCESS:     197655  HIT:     197655  MISS:          0  HIT %:        100  MISS %:          0   MPKI: 0
PSCL5 LOAD TRANSLATION ACCESS:        122  HIT:        122  MISS:          0  HIT %:        100  MISS %:          0   MPKI: 0
PSCL5 TRANSLATION FROM L1D PREFETCHER ACCESS:     197533  HIT:     197533  MISS:          0  HIT %:        100  MISS %:          0   MPKI: 0
PSCL5 PREFETCH  REQUESTED:          0  ISSUED:          0  USEFUL:          0  USELESS:          0
PSCL5 USEFUL LOAD PREFETCHES:          0 PREFETCH ISSUED TO LOWER LEVEL:          0  ACCURACY: -nan
PSCL5 TIMELY PREFETCHES:          0 LATE PREFETCHES: 0 DROPPED PREFETCHES: 0
PSCL5 PREFETCHES SAME FILL-ORIGIN LEVEL: 0 DIFFERENT FILL-ORIGIN LEVEL: 0

PSCL4 TOTAL     ACCESS:     197655  HIT:     197655  MISS:          0  HIT %:        100  MISS %:          0   MPKI: 0
PSCL4 LOAD TRANSLATION ACCESS:        122  HIT:        122  MISS:          0  HIT %:        100  MISS %:          0   MPKI: 0
PSCL4 TRANSLATION FROM L1D PREFETCHER ACCESS:     197533  HIT:     197533  MISS:          0  HIT %:        100  MISS %:          0   MPKI: 0
PSCL4 PREFETCH  REQUESTED:          0  ISSUED:          0  USEFUL:          0  USELESS:          0
PSCL4 USEFUL LOAD PREFETCHES:          0 PREFETCH ISSUED TO LOWER LEVEL:          0  ACCURACY: -nan
PSCL4 TIMELY PREFETCHES:          0 LATE PREFETCHES: 0 DROPPED PREFETCHES: 0
PSCL4 PREFETCHES SAME FILL-ORIGIN LEVEL: 0 DIFFERENT FILL-ORIGIN LEVEL: 0

PSCL3 TOTAL     ACCESS:     197655  HIT:     197655  MISS:          0  HIT %:        100  MISS %:          0   MPKI: 0
PSCL3 LOAD TRANSLATION ACCESS:        122  HIT:        122  MISS:          0  HIT %:        100  MISS %:          0   MPKI: 0
PSCL3 TRANSLATION FROM L1D PREFETCHER ACCESS:     197533  HIT:     197533  MISS:          0  HIT %:        100  MISS %:          0   MPKI: 0
PSCL3 PREFETCH  REQUESTED:          0  ISSUED:          0  USEFUL:          0  USELESS:          0
PSCL3 USEFUL LOAD PREFETCHES:          0 PREFETCH ISSUED TO LOWER LEVEL:          0  ACCURACY: -nan
PSCL3 TIMELY PREFETCHES:          0 LATE PREFETCHES: 0 DROPPED PREFETCHES: 0
PSCL3 PREFETCHES SAME FILL-ORIGIN LEVEL: 0 DIFFERENT FILL-ORIGIN LEVEL: 0

PSCL2 TOTAL     ACCESS:     197655  HIT:     197655  MISS:          0  HIT %:        100  MISS %:          0   MPKI: 0
PSCL2 LOAD TRANSLATION ACCESS:        122  HIT:        122  MISS:          0  HIT %:        100  MISS %:          0   MPKI: 0
PSCL2 TRANSLATION FROM L1D PREFETCHER ACCESS:     197533  HIT:     197533  MISS:          0  HIT %:        100  MISS %:          0   MPKI: 0
PSCL2 PREFETCH  REQUESTED:          0  ISSUED:          0  USEFUL:          0  USELESS:          0
PSCL2 USEFUL LOAD PREFETCHES:          0 PREFETCH ISSUED TO LOWER LEVEL:          0  ACCURACY: -nan
PSCL2 TIMELY PREFETCHES:          0 LATE PREFETCHES: 0 DROPPED PREFETCHES: 0
PSCL2 PREFETCHES SAME FILL-ORIGIN LEVEL: 0 DIFFERENT FILL-ORIGIN LEVEL: 0

LLC TOTAL     ACCESS:       9725  HIT:       1856  MISS:       7869  HIT %:    19.0848  MISS %:    80.9152   MPKI: 0.039345
LLC LOAD      ACCESS:         80  HIT:          4  MISS:         76  HIT %:          5  MISS %:         95   MPKI: 0.00038
LLC RFO       ACCESS:         70  HIT:          0  MISS:         70  HIT %:          0  MISS %:        100   MPKI: 0.00035
LLC PREFETCH  ACCESS:       9427  HIT:       1724  MISS:       7703  HIT %:    18.2879  MISS %:    81.7121   MPKI: 0.038515
LLC WRITEBACK ACCESS:         46  HIT:         46  MISS:          0  HIT %:        100  MISS %:          0   MPKI: 0
LLC LOAD TRANSLATION ACCESS:          1  HIT:          1  MISS:          0  HIT %:        100  MISS %:          0   MPKI: 0
LLC TRANSLATION FROM L1D PREFETCHER ACCESS:        101  HIT:         81  MISS:         20  HIT %:     80.198  MISS %:     19.802   MPKI: 0.0001
LLC PREFETCH  REQUESTED:          0  ISSUED:          0  USEFUL:         76  USELESS:        151
LLC USEFUL LOAD PREFETCHES:         76 PREFETCH ISSUED TO LOWER LEVEL:       7703  ACCURACY: 0.986629
LLC TIMELY PREFETCHES:         76 LATE PREFETCHES: 0 DROPPED PREFETCHES: 0
LLC PREFETCHES SAME FILL-ORIGIN LEVEL: 0 DIFFERENT FILL-ORIGIN LEVEL: 0
LLC AVERAGE MISS LATENCY: 152.293 cycles
LLC RQ	ACCESS:        252	FORWARD:          0	MERGED:          0	TO_CACHE:        252
LLC WQ	ACCESS:         46	FORWARD:          0	MERGED:          0	TO_CACHE:         46
LLC PQ	ACCESS:       9427	FORWARD:          0	MERGED:          0	TO_CACHE:       9427

LLC Dense regions hint to LLC: 0

RAW hits: 5988
Loads Generated: 34519887
Loads sent to L1D: 34513898
Stores Generated: 10044
Stores sent to L1D: 10044
Major fault: 0 Minor fault: 338
Allocated PAGES: 338

DRAM Statistics
 CHANNEL 0
 RQ ROW_BUFFER_HIT:       1396  ROW_BUFFER_MISS:       6473
 DBUS_CONGESTED:          0
 WQ ROW_BUFFER_HIT:          0  ROW_BUFFER_MISS:          0  FULL:          0

 AVG_CONGESTED_CYCLE: -
 All warmup complete: 2
Channel 0 Bank busy for read cycles: 0
Channel 0 Bank busy for write cycles: 0
Channel 0
Rank 0
0banks busy for read cycles: 184868430
0banks busy for write cycles: 0
1banks busy for read cycles: 917512
1banks busy for write cycles: 0
2banks busy for read cycles: 1683
2banks busy for write cycles: 0
3banks busy for read cycles: 1184
3banks busy for write cycles: 0
4banks busy for read cycles: 996
4banks busy for write cycles: 0
5banks busy for read cycles: 938
5banks busy for write cycles: 0
6banks busy for read cycles: 832
6banks busy for write cycles: 0
7banks busy for read cycles: 3874
7banks busy for write cycles: 0
8banks busy for read cycles: 9442
8banks busy for write cycles: 0

CPU 0 Branch Prediction Accuracy: 99.9996% MPKI: 0.000425 Average ROB Occupancy at Mispredict: 23.2118
Branch types
NOT_BRANCH: 179299049 89.6495%
BRANCH_DIRECT_JUMP: 1117 0.0005585%
BRANCH_INDIRECT: 0 0%
BRANCH_CONDITIONAL: 20699497 10.3497%
BRANCH_DIRECT_CALL: 0 0%
BRANCH_INDIRECT_CALL: 0 0%
BRANCH_RETURN: 0 0%
BRANCH_OTHER: 0 0%

DRAM PAGES: 1048576
Allocated PAGES: 338
