 (TOTAL 523355 bits 511 Kbits) 
*** ChampSim Multicore Out-of-Order Simulator ***

Warmup Instructions: 50000000
Simulation Instructions: 200000000
Number of CPUs: 1
LLC sets: 2048
LLC ways: 16
Off-chip DRAM Size: 4096 MB Channels: 1 Width: 64-bit Data Rate: 6400 MT/s
argv[0]: ./ChampSim/Berti/bin/tagescl-no-vberti-no-no-no-no-no-lru-lru-lru-srrip-drrip-lru-lru-lru-1core-no
argv[1]: -warmup_instructions
argv[2]: 50000000
argv[3]: -simulation_instructions
argv[4]: 200000000
argv[5]: -traces
argv[6]: traces/spec2k17_ten/638.imagick_s-824B.champsimtrace.xz
CPU 0 runs traces/spec2k17_ten/638.imagick_s-824B.champsimtrace.xz
.xz
CPU 0 Tage branch predictor
BTB has LRU replacement policy
ITLB has LRU replacement policy
DTLB has LRU replacement policy
STLB has LRU replacement policy
L1I has LRU replacement policy
History Sets: 8
History Ways: 16
BERTI Size: 16
BERTI Stride Size: 16
L1D has LRU replacement policy
Initialize SRRIP state for L2C
Initialize DRRIP state for LLC
Heartbeat CPU 0 instructions: 10000001 cycles: 3090405 heartbeat IPC: 3.23582 cumulative IPC: 3.23582 (Simulation time: 0 hr 6 min 16 sec) 
Heartbeat CPU 0 instructions: 20000003 cycles: 6180331 heartbeat IPC: 3.23632 cumulative IPC: 3.23607 (Simulation time: 0 hr 11 min 30 sec) 
Heartbeat CPU 0 instructions: 30000002 cycles: 9270918 heartbeat IPC: 3.23563 cumulative IPC: 3.23593 (Simulation time: 0 hr 18 min 11 sec) 
Heartbeat CPU 0 instructions: 40000002 cycles: 12361605 heartbeat IPC: 3.23553 cumulative IPC: 3.23583 (Simulation time: 0 hr 24 min 20 sec) 
Heartbeat CPU 0 instructions: 50000003 cycles: 15451324 heartbeat IPC: 3.23654 cumulative IPC: 3.23597 (Simulation time: 0 hr 31 min 50 sec) 

Warmup complete CPU 0 instructions: 50000003 cycles: 15451324 (Simulation time: 0 hr 31 min 50 sec) 

Heartbeat CPU 0 instructions: 60000000 cycles: 31758445 heartbeat IPC: 0.613229 cumulative IPC: 0.613229 (Simulation time: 0 hr 38 min 41 sec) 
Heartbeat CPU 0 instructions: 70000000 cycles: 47926972 heartbeat IPC: 0.618486 cumulative IPC: 0.615846 (Simulation time: 0 hr 46 min 14 sec) 
Heartbeat CPU 0 instructions: 80000000 cycles: 64237763 heartbeat IPC: 0.613091 cumulative IPC: 0.614925 (Simulation time: 0 hr 52 min 51 sec) 
Heartbeat CPU 0 instructions: 90000000 cycles: 80432533 heartbeat IPC: 0.617483 cumulative IPC: 0.615562 (Simulation time: 1 hr 0 min 51 sec) 
Heartbeat CPU 0 instructions: 100000001 cycles: 96724510 heartbeat IPC: 0.613799 cumulative IPC: 0.615209 (Simulation time: 1 hr 8 min 57 sec) 
Heartbeat CPU 0 instructions: 110000000 cycles: 112917109 heartbeat IPC: 0.617566 cumulative IPC: 0.615601 (Simulation time: 1 hr 16 min 35 sec) 
Heartbeat CPU 0 instructions: 120000000 cycles: 129207297 heartbeat IPC: 0.613866 cumulative IPC: 0.615352 (Simulation time: 1 hr 23 min 46 sec) 
Heartbeat CPU 0 instructions: 130000000 cycles: 145450353 heartbeat IPC: 0.615648 cumulative IPC: 0.615389 (Simulation time: 1 hr 30 min 53 sec) 
Heartbeat CPU 0 instructions: 140000000 cycles: 161688415 heartbeat IPC: 0.615837 cumulative IPC: 0.615439 (Simulation time: 1 hr 37 min 44 sec) 
Heartbeat CPU 0 instructions: 150000001 cycles: 177992429 heartbeat IPC: 0.613346 cumulative IPC: 0.615229 (Simulation time: 1 hr 43 min 15 sec) 
Heartbeat CPU 0 instructions: 160000000 cycles: 194170754 heartbeat IPC: 0.618111 cumulative IPC: 0.61549 (Simulation time: 1 hr 47 min 55 sec) 
Heartbeat CPU 0 instructions: 170000000 cycles: 210483155 heartbeat IPC: 0.613031 cumulative IPC: 0.615284 (Simulation time: 1 hr 52 min 55 sec) 
Heartbeat CPU 0 instructions: 180000000 cycles: 226655912 heartbeat IPC: 0.618324 cumulative IPC: 0.615517 (Simulation time: 1 hr 57 min 51 sec) 
Heartbeat CPU 0 instructions: 190000001 cycles: 242960428 heartbeat IPC: 0.613327 cumulative IPC: 0.61536 (Simulation time: 2 hr 2 min 46 sec) 
Heartbeat CPU 0 instructions: 200000002 cycles: 259149780 heartbeat IPC: 0.61769 cumulative IPC: 0.615515 (Simulation time: 2 hr 7 min 1 sec) 
Heartbeat CPU 0 instructions: 210000000 cycles: 275449038 heartbeat IPC: 0.613525 cumulative IPC: 0.61539 (Simulation time: 2 hr 11 min 18 sec) 
Heartbeat CPU 0 instructions: 220000000 cycles: 291640678 heartbeat IPC: 0.617603 cumulative IPC: 0.61552 (Simulation time: 2 hr 14 min 43 sec) 
Heartbeat CPU 0 instructions: 230000000 cycles: 307928645 heartbeat IPC: 0.61395 cumulative IPC: 0.615432 (Simulation time: 2 hr 17 min 36 sec) 
Heartbeat CPU 0 instructions: 240000001 cycles: 324148317 heartbeat IPC: 0.616535 cumulative IPC: 0.61549 (Simulation time: 2 hr 20 min 27 sec) 
Heartbeat CPU 0 instructions: 250000001 cycles: 340405009 heartbeat IPC: 0.615131 cumulative IPC: 0.615472 (Simulation time: 2 hr 22 min 32 sec) 
Finished CPU 0 instructions: 200000002 cycles: 324953686 cumulative IPC: 0.615472 (Simulation time: 2 hr 22 min 32 sec) 

ChampSim completed all CPUs

Region of Interest Statistics

CPU 0 cumulative IPC: 0.615472 instructions: 200000002 cycles: 324953686
ITLB TOTAL     ACCESS:   30805923  HIT:   30805923  MISS:          0  HIT %:        100  MISS %:          0   MPKI: 0
ITLB LOAD TRANSLATION ACCESS:   30805923  HIT:   30805923  MISS:          0  HIT %:        100  MISS %:          0   MPKI: 0
ITLB PREFETCH  REQUESTED:          0  ISSUED:          0  USEFUL:          0  USELESS:          0
ITLB USEFUL LOAD PREFETCHES:          0 PREFETCH ISSUED TO LOWER LEVEL:          0  ACCURACY: -nan
ITLB TIMELY PREFETCHES:          0 LATE PREFETCHES: 0 DROPPED PREFETCHES: 0
ITLB PREFETCHES SAME FILL-ORIGIN LEVEL: 0 DIFFERENT FILL-ORIGIN LEVEL: 0
ITLB AVERAGE MISS LATENCY: -nan cycles
ITLB RQ	ACCESS:   35743199	FORWARD:          0	MERGED:    4937277	TO_CACHE:   30805922

DTLB TOTAL     ACCESS:   29753431  HIT:   29752768  MISS:        663  HIT %:    99.9978  MISS %: 0.00222831   MPKI: 0.003315
DTLB LOAD TRANSLATION ACCESS:   29753431  HIT:   29752768  MISS:        663  HIT %:    99.9978  MISS %: 0.00222831   MPKI: 0.003315
DTLB PREFETCH  REQUESTED:          0  ISSUED:          0  USEFUL:          0  USELESS:          0
DTLB USEFUL LOAD PREFETCHES:          0 PREFETCH ISSUED TO LOWER LEVEL:          0  ACCURACY: -nan
DTLB TIMELY PREFETCHES:          0 LATE PREFETCHES: 0 DROPPED PREFETCHES: 0
DTLB PREFETCHES SAME FILL-ORIGIN LEVEL: 0 DIFFERENT FILL-ORIGIN LEVEL: 0
DTLB AVERAGE MISS LATENCY: 120 cycles
DTLB RQ	ACCESS:   34292482	FORWARD:          0	MERGED:    4539051	TO_CACHE:   29753431

STLB TOTAL     ACCESS:     338846  HIT:     338183  MISS:        663  HIT %:    99.8043  MISS %:   0.195664   MPKI: 0.003315
STLB LOAD TRANSLATION ACCESS:        663  HIT:          0  MISS:        663  HIT %:          0  MISS %:        100   MPKI: 0.003315
STLB TRANSLATION FROM L1D PREFETCHER ACCESS:     338183  HIT:     338183  MISS:          0  HIT %:        100  MISS %:          0   MPKI: 0
STLB PREFETCH  REQUESTED:          0  ISSUED:          0  USEFUL:          0  USELESS:          0
STLB USEFUL LOAD PREFETCHES:          0 PREFETCH ISSUED TO LOWER LEVEL:          0  ACCURACY: -nan
STLB TIMELY PREFETCHES:          0 LATE PREFETCHES: 0 DROPPED PREFETCHES: 62601
STLB PREFETCHES SAME FILL-ORIGIN LEVEL: 0 DIFFERENT FILL-ORIGIN LEVEL: 0
STLB AVERAGE MISS LATENCY: 111 cycles
STLB RQ	ACCESS:    2828492	FORWARD:          0	MERGED:    2427045	TO_CACHE:     401447

STLB Hit, L1D data hit: 0
STLB Hit, L2C data hit: 0
STLB Hit, LLC data hit: 0
STLB Hit, LLC data miss: 0
STLB STLB hints to L2: 0
L1D TOTAL     ACCESS:   36301226  HIT:   36258273  MISS:      42953  HIT %:    99.8817  MISS %:   0.118324   MPKI: 0.214765
L1D LOAD      ACCESS:   24282423  HIT:   24281389  MISS:       1034  HIT %:    99.9957  MISS %: 0.00425822   MPKI: 0.00517
L1D RFO       ACCESS:   10009895  HIT:   10009770  MISS:        125  HIT %:    99.9988  MISS %: 0.00124876   MPKI: 0.000625
L1D PREFETCH  ACCESS:    2008908  HIT:    1967114  MISS:      41794  HIT %:    97.9196  MISS %:    2.08043   MPKI: 0.20897
L1D PREFETCH  REQUESTED:    5655658  ISSUED:    5655658  USEFUL:      41791  USELESS:          0
L1D USEFUL LOAD PREFETCHES:      41791 PREFETCH ISSUED TO LOWER LEVEL:     607267  ACCURACY: 6.88182
L1D TIMELY PREFETCHES:      41791 LATE PREFETCHES: 0 DROPPED PREFETCHES: 253449
L1D PREFETCHES SAME FILL-ORIGIN LEVEL: 41794 DIFFERENT FILL-ORIGIN LEVEL: 565473
L1D AVERAGE MISS LATENCY: 31.9929 cycles
L1D RQ	ACCESS:   36360356	FORWARD:          0	MERGED:   10183295	TO_CACHE:   24282425
L1D WQ	ACCESS:   10010086	FORWARD:    1894636	MERGED:         29	TO_CACHE:   10010057
L1D PQ	ACCESS:    2827829	FORWARD:          0	MERGED:          0	TO_CACHE:    2827829

L1D UNIQUE REGIONS ACCESSED: 0
L1D REGIONS CONFLICTS: 0
L1D Cross Page Prefetch Requests: 332892
L1D Same Page Prefetch Requests: 3446122
L1D ROI Sum of L1D PQ occupancy: 47203362
L1D PREFETCHES PUSHED FROM L2C: 0
L1I TOTAL     ACCESS:   35743200  HIT:   35743200  MISS:          0  HIT %:        100  MISS %:          0   MPKI: 0
L1I LOAD      ACCESS:   35743200  HIT:   35743200  MISS:          0  HIT %:        100  MISS %:          0   MPKI: 0
L1I PREFETCH  REQUESTED:          0  ISSUED:          0  USEFUL:          0  USELESS:          0
L1I USEFUL LOAD PREFETCHES:          0 PREFETCH ISSUED TO LOWER LEVEL:          0  ACCURACY: -nan
L1I TIMELY PREFETCHES:          0 LATE PREFETCHES: 0 DROPPED PREFETCHES: 0
L1I PREFETCHES SAME FILL-ORIGIN LEVEL: 0 DIFFERENT FILL-ORIGIN LEVEL: 0
L1I AVERAGE MISS LATENCY: -nan cycles
L1I RQ	ACCESS:   52318499	FORWARD:          0	MERGED:   16575300	TO_CACHE:   35743199

BTB TOTAL     ACCESS:   19765215  HIT:   18776653  MISS:     988562  HIT %:    94.9985  MISS %:    5.00152   MPKI: 4.94281
BTB BRANCH_DIRECT_JUMP	ACCESS:    1659519  HIT:    1659506  MISS:         13
BTB BRANCH_INDIRECT	ACCESS:     339627  HIT:     339626  MISS:          1
BTB BRANCH_CONDITIONAL	ACCESS:    8270195  HIT:    8270164  MISS:         31
BTB BRANCH_DIRECT_CALL	ACCESS:    4747936  HIT:    4747921  MISS:         15
BTB BRANCH_INDIRECT_CALL	ACCESS:          0  HIT:          0  MISS:          0
BTB BRANCH_RETURN	ACCESS:    4747938  HIT:    3759436  MISS:     988502
BTB BRANCH_OTHER ACCESS:          0  HIT:          0  MISS:          0

L2C TOTAL     ACCESS:     714345  HIT:     671727  MISS:      42618  HIT %:     94.034  MISS %:    5.96602   MPKI: 0.21309
L2C LOAD      ACCESS:       1034  HIT:        364  MISS:        670  HIT %:    35.2031  MISS %:    64.7969   MPKI: 0.00335
L2C DATA LOAD MPKI: 0.00335
L2C INSTRUCTION LOAD MPKI: 0
L2C RFO       ACCESS:        125  HIT:        125  MISS:          0  HIT %:        100  MISS %:          0   MPKI: 0
L2C PREFETCH  ACCESS:     607248  HIT:     565455  MISS:      41793  HIT %:    93.1176  MISS %:    6.88236   MPKI: 0.208965
L2C DATA PREFETCH MPKI: 0.208965
L2C INSTRUCTION PREFETCH MPKI: 0
L2C WRITEBACK ACCESS:      42674  HIT:      42603  MISS:         71  HIT %:    99.8336  MISS %:   0.166378   MPKI: 0.000355
L2C LOAD TRANSLATION ACCESS:        663  HIT:        663  MISS:          0  HIT %:        100  MISS %:          0   MPKI: 0
L2C TRANSLATION FROM L1D PREFETCHER ACCESS:      62601  HIT:      62517  MISS:         84  HIT %:    99.8658  MISS %:   0.134183   MPKI: 0.00042
L2C PREFETCH  REQUESTED:          0  ISSUED:          0  USEFUL:         84  USELESS:      41782
L2C USEFUL LOAD PREFETCHES:         84 PREFETCH ISSUED TO LOWER LEVEL:      41793  ACCURACY: 0.200991
L2C TIMELY PREFETCHES:         84 LATE PREFETCHES: 0 DROPPED PREFETCHES: 0
L2C PREFETCHES SAME FILL-ORIGIN LEVEL: 37996 DIFFERENT FILL-ORIGIN LEVEL: 0
L2C AVERAGE MISS LATENCY: 150.523 cycles
L2C RQ	ACCESS:      64423	FORWARD:          0	MERGED:          0	TO_CACHE:      64423
L2C WQ	ACCESS:      42674	FORWARD:          0	MERGED:          0	TO_CACHE:      42674
L2C PQ	ACCESS:     607267	FORWARD:          0	MERGED:          0	TO_CACHE:     607267

L2C Instructions Evicting Data 0
L2C Translations Evicting Data 84
L2C Data Evicting Data 42381
L2C Instructions Evicting Instructions 0
L2C Translations Evicting Instructions 0
L2C Data Evicting Instructions 0
L2C Instructions Evicting Translations 0
L2C Translations Evicting Translations 0
L2C Data Evicting Translations 82
L2C Dense regions hint from L2: 0
PSCL5 TOTAL     ACCESS:      63264  HIT:      63264  MISS:          0  HIT %:        100  MISS %:          0   MPKI: 0
PSCL5 LOAD TRANSLATION ACCESS:        663  HIT:        663  MISS:          0  HIT %:        100  MISS %:          0   MPKI: 0
PSCL5 TRANSLATION FROM L1D PREFETCHER ACCESS:      62601  HIT:      62601  MISS:          0  HIT %:        100  MISS %:          0   MPKI: 0
PSCL5 PREFETCH  REQUESTED:          0  ISSUED:          0  USEFUL:          0  USELESS:          0
PSCL5 USEFUL LOAD PREFETCHES:          0 PREFETCH ISSUED TO LOWER LEVEL:          0  ACCURACY: -nan
PSCL5 TIMELY PREFETCHES:          0 LATE PREFETCHES: 0 DROPPED PREFETCHES: 0
PSCL5 PREFETCHES SAME FILL-ORIGIN LEVEL: 0 DIFFERENT FILL-ORIGIN LEVEL: 0

PSCL4 TOTAL     ACCESS:      63264  HIT:      63264  MISS:          0  HIT %:        100  MISS %:          0   MPKI: 0
PSCL4 LOAD TRANSLATION ACCESS:        663  HIT:        663  MISS:          0  HIT %:        100  MISS %:          0   MPKI: 0
PSCL4 TRANSLATION FROM L1D PREFETCHER ACCESS:      62601  HIT:      62601  MISS:          0  HIT %:        100  MISS %:          0   MPKI: 0
PSCL4 PREFETCH  REQUESTED:          0  ISSUED:          0  USEFUL:          0  USELESS:          0
PSCL4 USEFUL LOAD PREFETCHES:          0 PREFETCH ISSUED TO LOWER LEVEL:          0  ACCURACY: -nan
PSCL4 TIMELY PREFETCHES:          0 LATE PREFETCHES: 0 DROPPED PREFETCHES: 0
PSCL4 PREFETCHES SAME FILL-ORIGIN LEVEL: 0 DIFFERENT FILL-ORIGIN LEVEL: 0

PSCL3 TOTAL     ACCESS:      63264  HIT:      63264  MISS:          0  HIT %:        100  MISS %:          0   MPKI: 0
PSCL3 LOAD TRANSLATION ACCESS:        663  HIT:        663  MISS:          0  HIT %:        100  MISS %:          0   MPKI: 0
PSCL3 TRANSLATION FROM L1D PREFETCHER ACCESS:      62601  HIT:      62601  MISS:          0  HIT %:        100  MISS %:          0   MPKI: 0
PSCL3 PREFETCH  REQUESTED:          0  ISSUED:          0  USEFUL:          0  USELESS:          0
PSCL3 USEFUL LOAD PREFETCHES:          0 PREFETCH ISSUED TO LOWER LEVEL:          0  ACCURACY: -nan
PSCL3 TIMELY PREFETCHES:          0 LATE PREFETCHES: 0 DROPPED PREFETCHES: 0
PSCL3 PREFETCHES SAME FILL-ORIGIN LEVEL: 0 DIFFERENT FILL-ORIGIN LEVEL: 0

PSCL2 TOTAL     ACCESS:      63176  HIT:      63175  MISS:          1  HIT %:    99.9984  MISS %: 0.00158288   MPKI: 5e-06
PSCL2 LOAD TRANSLATION ACCESS:        663  HIT:        662  MISS:          1  HIT %:    99.8492  MISS %:    0.15083   MPKI: 5e-06
PSCL2 TRANSLATION FROM L1D PREFETCHER ACCESS:      62513  HIT:      62513  MISS:          0  HIT %:        100  MISS %:          0   MPKI: 0
PSCL2 PREFETCH  REQUESTED:          0  ISSUED:          0  USEFUL:          0  USELESS:          0
PSCL2 USEFUL LOAD PREFETCHES:          0 PREFETCH ISSUED TO LOWER LEVEL:          0  ACCURACY: -nan
PSCL2 TIMELY PREFETCHES:          0 LATE PREFETCHES: 0 DROPPED PREFETCHES: 0
PSCL2 PREFETCHES SAME FILL-ORIGIN LEVEL: 0 DIFFERENT FILL-ORIGIN LEVEL: 0

LLC TOTAL     ACCESS:      85007  HIT:      41831  MISS:      43176  HIT %:    49.2089  MISS %:    50.7911   MPKI: 0.21588
LLC LOAD      ACCESS:        670  HIT:          4  MISS:        666  HIT %:   0.597015  MISS %:     99.403   MPKI: 0.00333
LLC PREFETCH  ACCESS:      41793  HIT:          0  MISS:      41793  HIT %:          0  MISS %:        100   MPKI: 0.208965
LLC WRITEBACK ACCESS:      42460  HIT:      41827  MISS:        633  HIT %:    98.5092  MISS %:    1.49081   MPKI: 0.003165
LLC TRANSLATION FROM L1D PREFETCHER ACCESS:         84  HIT:          0  MISS:         84  HIT %:          0  MISS %:        100   MPKI: 0.00042
LLC PREFETCH  REQUESTED:          0  ISSUED:          0  USEFUL:          0  USELESS:      20440
LLC USEFUL LOAD PREFETCHES:          0 PREFETCH ISSUED TO LOWER LEVEL:      41793  ACCURACY: 0
LLC TIMELY PREFETCHES:          0 LATE PREFETCHES: 0 DROPPED PREFETCHES: 0
LLC PREFETCHES SAME FILL-ORIGIN LEVEL: 0 DIFFERENT FILL-ORIGIN LEVEL: 0
LLC AVERAGE MISS LATENCY: 119.015 cycles
LLC RQ	ACCESS:        754	FORWARD:          0	MERGED:          0	TO_CACHE:        754
LLC WQ	ACCESS:      42460	FORWARD:          0	MERGED:          0	TO_CACHE:      42460
LLC PQ	ACCESS:      41793	FORWARD:          0	MERGED:          0	TO_CACHE:      41793

LLC Dense regions hint to LLC: 0

RAW hits: 2962306
Loads Generated: 39322662
Loads sent to L1D: 36360356
Stores Generated: 10010085
Stores sent to L1D: 10010086
Major fault: 0 Minor fault: 870
Allocated PAGES: 870

DRAM Statistics
 CHANNEL 0
 RQ ROW_BUFFER_HIT:      22869  ROW_BUFFER_MISS:      19674
 DBUS_CONGESTED:          0
 WQ ROW_BUFFER_HIT:        883  ROW_BUFFER_MISS:      19394  FULL:          0

 AVG_CONGESTED_CYCLE: -
 All warmup complete: 2
Channel 0 Bank busy for read cycles: 0
Channel 0 Bank busy for write cycles: 0
Channel 0
Rank 0
0banks busy for read cycles: 319015872
0banks busy for write cycles: 16450
1banks busy for read cycles: 3099308
1banks busy for write cycles: 2256010
2banks busy for read cycles: 217897
2banks busy for write cycles: 161537
3banks busy for read cycles: 41521
3banks busy for write cycles: 22627
4banks busy for read cycles: 6431
4banks busy for write cycles: 2537
5banks busy for read cycles: 9344
5banks busy for write cycles: 903
6banks busy for read cycles: 42571
6banks busy for write cycles: 34992
7banks busy for read cycles: 9153
7banks busy for write cycles: 7448
8banks busy for read cycles: 5368
8banks busy for write cycles: 3718

CPU 0 Branch Prediction Accuracy: 99.9125% MPKI: 0.090895 Average ROB Occupancy at Mispredict: 35.9429
Branch types
NOT_BRANCH: 167735285 83.8676%
BRANCH_DIRECT_JUMP: 1659519 0.829759%
BRANCH_INDIRECT: 339627 0.169813%
BRANCH_CONDITIONAL: 20769341 10.3847%
BRANCH_DIRECT_CALL: 4747936 2.37397%
BRANCH_INDIRECT_CALL: 0 0%
BRANCH_RETURN: 4747938 2.37397%
BRANCH_OTHER: 0 0%

DRAM PAGES: 1048576
Allocated PAGES: 870
