 (TOTAL 67349)
 
*** ChampSim Multicore Out-of-Order Simulator ***

Warmup Instructions: 50000000
Simulation Instructions: 200000000
Number of CPUs: 1
LLC sets: 2048
LLC ways: 16
Off-chip DRAM Size: 4096 MB Channels: 1 Width: 64-bit Data Rate: 6400 MT/s
argv[0]: ./ChampSim/Berti/bin/tagescl8kb-no-vberti-no-no-no-no-no-lru-lru-lru-srrip-drrip-lru-lru-lru-1core-no
argv[1]: -warmup_instructions
argv[2]: 50000000
argv[3]: -simulation_instructions
argv[4]: 200000000
argv[5]: -traces
argv[6]: traces/spec2k17_ten/654.roms_s-1007B.champsimtrace.xz
CPU 0 runs traces/spec2k17_ten/654.roms_s-1007B.champsimtrace.xz
.xz
CPU 0 Tage branch predictor
BTB has LRU replacement policy
ITLB has LRU replacement policy
DTLB has LRU replacement policy
STLB has LRU replacement policy
L1I has LRU replacement policy
History Sets: 8
History Ways: 16
BERTI Size: 16
BERTI Stride Size: 16
L1D has LRU replacement policy
Initialize SRRIP state for L2C
Initialize DRRIP state for LLC
Heartbeat CPU 0 instructions: 10000000 cycles: 3015939 heartbeat IPC: 3.31572 cumulative IPC: 3.31572 (Simulation time: 0 hr 6 min 6 sec) 
Heartbeat CPU 0 instructions: 20000002 cycles: 6031696 heartbeat IPC: 3.31592 cumulative IPC: 3.31582 (Simulation time: 0 hr 11 min 23 sec) 
Heartbeat CPU 0 instructions: 30000000 cycles: 9047583 heartbeat IPC: 3.31577 cumulative IPC: 3.3158 (Simulation time: 0 hr 16 min 59 sec) 
Heartbeat CPU 0 instructions: 40000000 cycles: 12063318 heartbeat IPC: 3.31594 cumulative IPC: 3.31584 (Simulation time: 0 hr 21 min 42 sec) 
Heartbeat CPU 0 instructions: 50000003 cycles: 15186533 heartbeat IPC: 3.20183 cumulative IPC: 3.29239 (Simulation time: 0 hr 25 min 23 sec) 

Warmup complete CPU 0 instructions: 50000003 cycles: 15186533 (Simulation time: 0 hr 25 min 23 sec) 

Heartbeat CPU 0 instructions: 60000002 cycles: 32655590 heartbeat IPC: 0.572441 cumulative IPC: 0.572441 (Simulation time: 0 hr 30 min 44 sec) 
Heartbeat CPU 0 instructions: 70000000 cycles: 52096920 heartbeat IPC: 0.514368 cumulative IPC: 0.541853 (Simulation time: 0 hr 36 min 4 sec) 
Heartbeat CPU 0 instructions: 80000000 cycles: 71531577 heartbeat IPC: 0.514545 cumulative IPC: 0.532434 (Simulation time: 0 hr 40 min 55 sec) 
Heartbeat CPU 0 instructions: 90000000 cycles: 90963152 heartbeat IPC: 0.514626 cumulative IPC: 0.527867 (Simulation time: 0 hr 44 min 35 sec) 
Heartbeat CPU 0 instructions: 100000000 cycles: 110389318 heartbeat IPC: 0.51477 cumulative IPC: 0.525195 (Simulation time: 0 hr 48 min 9 sec) 
Heartbeat CPU 0 instructions: 110000000 cycles: 129820841 heartbeat IPC: 0.514628 cumulative IPC: 0.523403 (Simulation time: 0 hr 51 min 44 sec) 
Heartbeat CPU 0 instructions: 120000001 cycles: 147273812 heartbeat IPC: 0.572968 cumulative IPC: 0.529953 (Simulation time: 0 hr 54 min 52 sec) 
Heartbeat CPU 0 instructions: 130000002 cycles: 161930125 heartbeat IPC: 0.6823 cumulative IPC: 0.545169 (Simulation time: 0 hr 57 min 14 sec) 
Heartbeat CPU 0 instructions: 140000000 cycles: 181359390 heartbeat IPC: 0.514687 cumulative IPC: 0.541605 (Simulation time: 0 hr 58 min 53 sec) 
Heartbeat CPU 0 instructions: 150000000 cycles: 200791367 heartbeat IPC: 0.514616 cumulative IPC: 0.538779 (Simulation time: 1 hr 0 min 18 sec) 
Heartbeat CPU 0 instructions: 160000001 cycles: 220223124 heartbeat IPC: 0.514622 cumulative IPC: 0.53649 (Simulation time: 1 hr 1 min 23 sec) 
Heartbeat CPU 0 instructions: 170000000 cycles: 239649064 heartbeat IPC: 0.514776 cumulative IPC: 0.53461 (Simulation time: 1 hr 2 min 21 sec) 
Heartbeat CPU 0 instructions: 180000002 cycles: 259080486 heartbeat IPC: 0.51463 cumulative IPC: 0.533019 (Simulation time: 1 hr 3 min 34 sec) 
Heartbeat CPU 0 instructions: 190000002 cycles: 278512263 heartbeat IPC: 0.514621 cumulative IPC: 0.531661 (Simulation time: 1 hr 4 min 47 sec) 
Heartbeat CPU 0 instructions: 200000001 cycles: 291289497 heartbeat IPC: 0.782642 cumulative IPC: 0.543276 (Simulation time: 1 hr 5 min 33 sec) 
Heartbeat CPU 0 instructions: 210000001 cycles: 310699041 heartbeat IPC: 0.51521 cumulative IPC: 0.541432 (Simulation time: 1 hr 6 min 18 sec) 
Heartbeat CPU 0 instructions: 220000000 cycles: 330125579 heartbeat IPC: 0.51476 cumulative IPC: 0.539787 (Simulation time: 1 hr 7 min 1 sec) 
Heartbeat CPU 0 instructions: 230000000 cycles: 349557492 heartbeat IPC: 0.514617 cumulative IPC: 0.538324 (Simulation time: 1 hr 7 min 43 sec) 
Heartbeat CPU 0 instructions: 240000001 cycles: 368989053 heartbeat IPC: 0.514627 cumulative IPC: 0.537023 (Simulation time: 1 hr 8 min 25 sec) 
Heartbeat CPU 0 instructions: 250000003 cycles: 388415286 heartbeat IPC: 0.514768 cumulative IPC: 0.535864 (Simulation time: 1 hr 9 min 6 sec) 
Finished CPU 0 instructions: 200000000 cycles: 373228753 cumulative IPC: 0.535864 (Simulation time: 1 hr 9 min 6 sec) 

ChampSim completed all CPUs

Region of Interest Statistics

CPU 0 cumulative IPC: 0.535864 instructions: 200000000 cycles: 373228753
ITLB TOTAL     ACCESS:   33773421  HIT:   33773419  MISS:          2  HIT %:        100  MISS %: 5.92182e-06   MPKI: 1e-05
ITLB LOAD TRANSLATION ACCESS:   33773421  HIT:   33773419  MISS:          2  HIT %:        100  MISS %: 5.92182e-06   MPKI: 1e-05
ITLB PREFETCH  REQUESTED:          0  ISSUED:          0  USEFUL:          0  USELESS:          0
ITLB USEFUL LOAD PREFETCHES:          0 PREFETCH ISSUED TO LOWER LEVEL:          0  ACCURACY: -nan
ITLB TIMELY PREFETCHES:          0 LATE PREFETCHES: 0 DROPPED PREFETCHES: 0
ITLB PREFETCHES SAME FILL-ORIGIN LEVEL: 0 DIFFERENT FILL-ORIGIN LEVEL: 0
ITLB AVERAGE MISS LATENCY: 325.5 cycles
ITLB RQ	ACCESS:   42936677	FORWARD:          0	MERGED:    9163257	TO_CACHE:   33773420

DTLB TOTAL     ACCESS:   56973429  HIT:   56942641  MISS:      30788  HIT %:     99.946  MISS %:  0.0540392   MPKI: 0.15394
DTLB LOAD TRANSLATION ACCESS:   56973429  HIT:   56942641  MISS:      30788  HIT %:     99.946  MISS %:  0.0540392   MPKI: 0.15394
DTLB PREFETCH  REQUESTED:          0  ISSUED:          0  USEFUL:          0  USELESS:          0
DTLB USEFUL LOAD PREFETCHES:          0 PREFETCH ISSUED TO LOWER LEVEL:          0  ACCURACY: -nan
DTLB TIMELY PREFETCHES:          0 LATE PREFETCHES: 0 DROPPED PREFETCHES: 0
DTLB PREFETCHES SAME FILL-ORIGIN LEVEL: 0 DIFFERENT FILL-ORIGIN LEVEL: 0
DTLB AVERAGE MISS LATENCY: 109.193 cycles
DTLB RQ	ACCESS:   64358657	FORWARD:          0	MERGED:    7342393	TO_CACHE:   57016264

STLB TOTAL     ACCESS:    6307232  HIT:    6278085  MISS:      29147  HIT %:    99.5379  MISS %:    0.46212   MPKI: 0.145735
STLB LOAD TRANSLATION ACCESS:      30790  HIT:      13199  MISS:      17591  HIT %:    42.8678  MISS %:    57.1322   MPKI: 0.087955
STLB TRANSLATION FROM L1D PREFETCHER ACCESS:    6276442  HIT:    6264886  MISS:      11556  HIT %:    99.8159  MISS %:   0.184117   MPKI: 0.05778
STLB PREFETCH  REQUESTED:          0  ISSUED:          0  USEFUL:      11553  USELESS:          2
STLB USEFUL LOAD PREFETCHES:      11553 PREFETCH ISSUED TO LOWER LEVEL:          0  ACCURACY: inf
STLB TIMELY PREFETCHES:      11553 LATE PREFETCHES: 611 DROPPED PREFETCHES: 140205
STLB PREFETCHES SAME FILL-ORIGIN LEVEL: 0 DIFFERENT FILL-ORIGIN LEVEL: 0
STLB AVERAGE MISS LATENCY: 138.047 cycles
STLB RQ	ACCESS:   36475280	FORWARD:          0	MERGED:   30011225	TO_CACHE:    6464055

STLB Hit, L1D data hit: 0
STLB Hit, L2C data hit: 0
STLB Hit, LLC data hit: 0
STLB Hit, LLC data miss: 0
STLB STLB hints to L2: 0
L1D TOTAL     ACCESS:   93221443  HIT:   91953225  MISS:    1268218  HIT %:    98.6396  MISS %:    1.36044   MPKI: 6.34109
L1D LOAD      ACCESS:   40654299  HIT:   40538820  MISS:     115479  HIT %:    99.7159  MISS %:   0.284051   MPKI: 0.577395
L1D RFO       ACCESS:   21590663  HIT:   21172280  MISS:     418383  HIT %:    98.0622  MISS %:     1.9378   MPKI: 2.09192
L1D PREFETCH  ACCESS:   30976481  HIT:   30242125  MISS:     734356  HIT %:    97.6293  MISS %:    2.37069   MPKI: 3.67178
L1D PREFETCH  REQUESTED:   89832894  ISSUED:   75097471  USEFUL:     676978  USELESS:      57433
L1D USEFUL LOAD PREFETCHES:     676978 PREFETCH ISSUED TO LOWER LEVEL:    4058899  ACCURACY: 16.6789
L1D TIMELY PREFETCHES:     676978 LATE PREFETCHES: 7770 DROPPED PREFETCHES: 302466
L1D PREFETCHES SAME FILL-ORIGIN LEVEL: 742126 DIFFERENT FILL-ORIGIN LEVEL: 3316773
L1D AVERAGE MISS LATENCY: 241.593 cycles
L1D RQ	ACCESS:   48640239	FORWARD:          0	MERGED:    7852433	TO_CACHE:   40754808
L1D WQ	ACCESS:   25053030	FORWARD:      32998	MERGED:    1449181	TO_CACHE:   23603849
L1D PQ	ACCESS:   38652981	FORWARD:          0	MERGED:    2208491	TO_CACHE:   36444490

L1D UNIQUE REGIONS ACCESSED: 0
L1D REGIONS CONFLICTS: 0
L1D Cross Page Prefetch Requests: 3311359
L1D Same Page Prefetch Requests: 43227519
L1D ROI Sum of L1D PQ occupancy: 606193328
L1D PREFETCHES PUSHED FROM L2C: 0
L1I TOTAL     ACCESS:   42936666  HIT:   42936630  MISS:         36  HIT %:    99.9999  MISS %: 8.38444e-05   MPKI: 0.00018
L1I LOAD      ACCESS:   42936666  HIT:   42936630  MISS:         36  HIT %:    99.9999  MISS %: 8.38444e-05   MPKI: 0.00018
L1I PREFETCH  REQUESTED:          0  ISSUED:          0  USEFUL:          0  USELESS:          0
L1I USEFUL LOAD PREFETCHES:          0 PREFETCH ISSUED TO LOWER LEVEL:          0  ACCURACY: -nan
L1I TIMELY PREFETCHES:          0 LATE PREFETCHES: 0 DROPPED PREFETCHES: 0
L1I PREFETCHES SAME FILL-ORIGIN LEVEL: 0 DIFFERENT FILL-ORIGIN LEVEL: 0
L1I AVERAGE MISS LATENCY: 249.056 cycles
L1I RQ	ACCESS:   55684272	FORWARD:          0	MERGED:   12747595	TO_CACHE:   42936677

BTB TOTAL     ACCESS:   12980512  HIT:   11531272  MISS:    1449240  HIT %:    88.8353  MISS %:    11.1647   MPKI: 7.2462
BTB BRANCH_DIRECT_JUMP	ACCESS:    1449216  HIT:    1449208  MISS:          8
BTB BRANCH_INDIRECT	ACCESS:          0  HIT:          0  MISS:          0
BTB BRANCH_CONDITIONAL	ACCESS:    5734548  HIT:    5734517  MISS:         31
BTB BRANCH_DIRECT_CALL	ACCESS:    2898375  HIT:    2898365  MISS:         10
BTB BRANCH_INDIRECT_CALL	ACCESS:          0  HIT:          0  MISS:          0
BTB BRANCH_RETURN	ACCESS:    2898373  HIT:    1449182  MISS:    1449191
BTB BRANCH_OTHER ACCESS:          0  HIT:          0  MISS:          0

L2C TOTAL     ACCESS:    4228249  HIT:    2916353  MISS:    1311896  HIT %:    68.9731  MISS %:    31.0269   MPKI: 6.55948
L2C LOAD      ACCESS:     107744  HIT:      57353  MISS:      50391  HIT %:    53.2308  MISS %:    46.7692   MPKI: 0.251955
L2C DATA LOAD MPKI: 0.251775
L2C INSTRUCTION LOAD MPKI: 0.00018
L2C RFO       ACCESS:     418383  HIT:          0  MISS:     418383  HIT %:          0  MISS %:        100   MPKI: 2.09192
L2C PREFETCH  ACCESS:    3113517  HIT:    2282593  MISS:     830924  HIT %:    73.3124  MISS %:    26.6876   MPKI: 4.15462
L2C DATA PREFETCH MPKI: 4.15462
L2C INSTRUCTION PREFETCH MPKI: 0
L2C WRITEBACK ACCESS:     418550  HIT:     412530  MISS:       6020  HIT %:    98.5617  MISS %:     1.4383   MPKI: 0.0301
L2C LOAD TRANSLATION ACCESS:      17609  HIT:      14504  MISS:       3105  HIT %:     82.367  MISS %:     17.633   MPKI: 0.015525
L2C TRANSLATION FROM L1D PREFETCHER ACCESS:     152446  HIT:     149373  MISS:       3073  HIT %:    97.9842  MISS %:     2.0158   MPKI: 0.015365
L2C PREFETCH  REQUESTED:          0  ISSUED:          0  USEFUL:      59394  USELESS:     773770
L2C USEFUL LOAD PREFETCHES:      59394 PREFETCH ISSUED TO LOWER LEVEL:     859381  ACCURACY: 6.91125
L2C TIMELY PREFETCHES:      59394 LATE PREFETCHES: 28457 DROPPED PREFETCHES: 0
L2C PREFETCHES SAME FILL-ORIGIN LEVEL: 495060 DIFFERENT FILL-ORIGIN LEVEL: 0
L2C AVERAGE MISS LATENCY: 312.349 cycles
L2C RQ	ACCESS:     696183	FORWARD:          0	MERGED:          0	TO_CACHE:     696182
L2C WQ	ACCESS:     418550	FORWARD:          1	MERGED:          0	TO_CACHE:     418550
L2C PQ	ACCESS:    4055040	FORWARD:          0	MERGED:       1282	TO_CACHE:    4053758

L2C Instructions Evicting Data 36
L2C Translations Evicting Data 6161
L2C Data Evicting Data 1293462
L2C Instructions Evicting Instructions 0
L2C Translations Evicting Instructions 0
L2C Data Evicting Instructions 36
L2C Instructions Evicting Translations 0
L2C Translations Evicting Translations 17
L2C Data Evicting Translations 6164
L2C Dense regions hint from L2: 0
PSCL5 TOTAL     ACCESS:     169910  HIT:     169910  MISS:          0  HIT %:        100  MISS %:          0   MPKI: 0
PSCL5 LOAD TRANSLATION ACCESS:      17538  HIT:      17538  MISS:          0  HIT %:        100  MISS %:          0   MPKI: 0
PSCL5 TRANSLATION FROM L1D PREFETCHER ACCESS:     152372  HIT:     152372  MISS:          0  HIT %:        100  MISS %:          0   MPKI: 0
PSCL5 PREFETCH  REQUESTED:          0  ISSUED:          0  USEFUL:          0  USELESS:          0
PSCL5 USEFUL LOAD PREFETCHES:          0 PREFETCH ISSUED TO LOWER LEVEL:          0  ACCURACY: -nan
PSCL5 TIMELY PREFETCHES:          0 LATE PREFETCHES: 0 DROPPED PREFETCHES: 0
PSCL5 PREFETCHES SAME FILL-ORIGIN LEVEL: 0 DIFFERENT FILL-ORIGIN LEVEL: 0

PSCL4 TOTAL     ACCESS:     169910  HIT:     169910  MISS:          0  HIT %:        100  MISS %:          0   MPKI: 0
PSCL4 LOAD TRANSLATION ACCESS:      17538  HIT:      17538  MISS:          0  HIT %:        100  MISS %:          0   MPKI: 0
PSCL4 TRANSLATION FROM L1D PREFETCHER ACCESS:     152372  HIT:     152372  MISS:          0  HIT %:        100  MISS %:          0   MPKI: 0
PSCL4 PREFETCH  REQUESTED:          0  ISSUED:          0  USEFUL:          0  USELESS:          0
PSCL4 USEFUL LOAD PREFETCHES:          0 PREFETCH ISSUED TO LOWER LEVEL:          0  ACCURACY: -nan
PSCL4 TIMELY PREFETCHES:          0 LATE PREFETCHES: 0 DROPPED PREFETCHES: 0
PSCL4 PREFETCHES SAME FILL-ORIGIN LEVEL: 0 DIFFERENT FILL-ORIGIN LEVEL: 0

PSCL3 TOTAL     ACCESS:     169907  HIT:     169901  MISS:          6  HIT %:    99.9965  MISS %: 0.00353134   MPKI: 3e-05
PSCL3 LOAD TRANSLATION ACCESS:      17538  HIT:      17532  MISS:          6  HIT %:    99.9658  MISS %:  0.0342114   MPKI: 3e-05
PSCL3 TRANSLATION FROM L1D PREFETCHER ACCESS:     152369  HIT:     152369  MISS:          0  HIT %:        100  MISS %:          0   MPKI: 0
PSCL3 PREFETCH  REQUESTED:          0  ISSUED:          0  USEFUL:          0  USELESS:          0
PSCL3 USEFUL LOAD PREFETCHES:          0 PREFETCH ISSUED TO LOWER LEVEL:          0  ACCURACY: -nan
PSCL3 TIMELY PREFETCHES:          0 LATE PREFETCHES: 0 DROPPED PREFETCHES: 0
PSCL3 PREFETCHES SAME FILL-ORIGIN LEVEL: 0 DIFFERENT FILL-ORIGIN LEVEL: 0

PSCL2 TOTAL     ACCESS:     169643  HIT:     169517  MISS:        126  HIT %:    99.9257  MISS %:  0.0742736   MPKI: 0.00063
PSCL2 LOAD TRANSLATION ACCESS:      17557  HIT:      17431  MISS:        126  HIT %:    99.2823  MISS %:   0.717662   MPKI: 0.00063
PSCL2 TRANSLATION FROM L1D PREFETCHER ACCESS:     152086  HIT:     152086  MISS:          0  HIT %:        100  MISS %:          0   MPKI: 0
PSCL2 PREFETCH  REQUESTED:          0  ISSUED:          0  USEFUL:          0  USELESS:          0
PSCL2 USEFUL LOAD PREFETCHES:          0 PREFETCH ISSUED TO LOWER LEVEL:          0  ACCURACY: -nan
PSCL2 TIMELY PREFETCHES:          0 LATE PREFETCHES: 0 DROPPED PREFETCHES: 0
PSCL2 PREFETCHES SAME FILL-ORIGIN LEVEL: 0 DIFFERENT FILL-ORIGIN LEVEL: 0

LLC TOTAL     ACCESS:    1724861  HIT:     412601  MISS:    1312260  HIT %:    23.9208  MISS %:    76.0792   MPKI: 6.5613
LLC LOAD      ACCESS:      21934  HIT:         19  MISS:      21915  HIT %:  0.0866235  MISS %:    99.9134   MPKI: 0.109575
LLC RFO       ACCESS:     418383  HIT:          0  MISS:     418383  HIT %:          0  MISS %:        100   MPKI: 2.09192
LLC PREFETCH  ACCESS:     859381  HIT:        401  MISS:     858980  HIT %:  0.0466615  MISS %:    99.9533   MPKI: 4.2949
LLC WRITEBACK ACCESS:     418985  HIT:     412139  MISS:       6846  HIT %:    98.3661  MISS %:    1.63395   MPKI: 0.03423
LLC LOAD TRANSLATION ACCESS:       3105  HIT:         20  MISS:       3085  HIT %:   0.644122  MISS %:    99.3559   MPKI: 0.015425
LLC TRANSLATION FROM L1D PREFETCHER ACCESS:       3073  HIT:         22  MISS:       3051  HIT %:   0.715913  MISS %:    99.2841   MPKI: 0.015255
LLC PREFETCH  REQUESTED:          0  ISSUED:          0  USEFUL:         13  USELESS:     862456
LLC USEFUL LOAD PREFETCHES:         13 PREFETCH ISSUED TO LOWER LEVEL:     858980  ACCURACY: 0.00151342
LLC TIMELY PREFETCHES:         13 LATE PREFETCHES: 0 DROPPED PREFETCHES: 0
LLC PREFETCHES SAME FILL-ORIGIN LEVEL: 0 DIFFERENT FILL-ORIGIN LEVEL: 0
LLC AVERAGE MISS LATENCY: 284.38 cycles
LLC RQ	ACCESS:     446495	FORWARD:          0	MERGED:          0	TO_CACHE:     446495
LLC WQ	ACCESS:     418985	FORWARD:          0	MERGED:          0	TO_CACHE:     418985
LLC PQ	ACCESS:     859381	FORWARD:          0	MERGED:          0	TO_CACHE:     859381

LLC Dense regions hint to LLC: 0

RAW hits: 5923867
Loads Generated: 54564107
Loads sent to L1D: 48640239
Stores Generated: 25053029
Stores sent to L1D: 25053030
Major fault: 0 Minor fault: 17838
Allocated PAGES: 17838

DRAM Statistics
 CHANNEL 0
 RQ ROW_BUFFER_HIT:     431336  ROW_BUFFER_MISS:     874078
 DBUS_CONGESTED:         43
 WQ ROW_BUFFER_HIT:      52081  ROW_BUFFER_MISS:     365470  FULL:          0

 AVG_CONGESTED_CYCLE: 4
 All warmup complete: 2
Channel 0 Bank busy for read cycles: 0
Channel 0 Bank busy for write cycles: 0
Channel 0
Rank 0
0banks busy for read cycles: 300671201
0banks busy for write cycles: 74044
1banks busy for read cycles: 24829732
1banks busy for write cycles: 11444053
2banks busy for read cycles: 3007104
2banks busy for write cycles: 531856
3banks busy for read cycles: 3712533
3banks busy for write cycles: 225035
4banks busy for read cycles: 4919866
4banks busy for write cycles: 126512
5banks busy for read cycles: 4714371
5banks busy for write cycles: 83056
6banks busy for read cycles: 3929135
6banks busy for write cycles: 84531
7banks busy for read cycles: 3394346
7banks busy for write cycles: 719786
8banks busy for read cycles: 3514530
8banks busy for write cycles: 7247063

CPU 0 Branch Prediction Accuracy: 99.9998% MPKI: 0.000165 Average ROB Occupancy at Mispredict: 39.0909
Branch types
NOT_BRANCH: 178321210 89.1606%
BRANCH_DIRECT_JUMP: 1449216 0.724608%
BRANCH_INDIRECT: 0 0%
BRANCH_CONDITIONAL: 14432543 7.21627%
BRANCH_DIRECT_CALL: 2898375 1.44919%
BRANCH_INDIRECT_CALL: 0 0%
BRANCH_RETURN: 2898373 1.44919%
BRANCH_OTHER: 0 0%

DRAM PAGES: 1048576
Allocated PAGES: 17838
