 (TOTAL 67349)
 
*** ChampSim Multicore Out-of-Order Simulator ***

Warmup Instructions: 50000000
Simulation Instructions: 200000000
Number of CPUs: 1
LLC sets: 2048
LLC ways: 16
Off-chip DRAM Size: 4096 MB Channels: 1 Width: 64-bit Data Rate: 6400 MT/s
argv[0]: ./ChampSim/Berti/bin/tagescl8kb-no-vberti-no-no-no-no-no-lru-lru-lru-srrip-drrip-lru-lru-lru-1core-no
argv[1]: -warmup_instructions
argv[2]: 50000000
argv[3]: -simulation_instructions
argv[4]: 200000000
argv[5]: -traces
argv[6]: traces/spec2k17_ten/654.roms_s-1070B.champsimtrace.xz
CPU 0 runs traces/spec2k17_ten/654.roms_s-1070B.champsimtrace.xz
.xz
CPU 0 Tage branch predictor
BTB has LRU replacement policy
ITLB has LRU replacement policy
DTLB has LRU replacement policy
STLB has LRU replacement policy
L1I has LRU replacement policy
History Sets: 8
History Ways: 16
BERTI Size: 16
BERTI Stride Size: 16
L1D has LRU replacement policy
Initialize SRRIP state for L2C
Initialize DRRIP state for LLC
Heartbeat CPU 0 instructions: 10000002 cycles: 3109982 heartbeat IPC: 3.21545 cumulative IPC: 3.21545 (Simulation time: 0 hr 6 min 15 sec) 
Heartbeat CPU 0 instructions: 20000002 cycles: 6328637 heartbeat IPC: 3.10689 cumulative IPC: 3.16024 (Simulation time: 0 hr 12 min 10 sec) 
Heartbeat CPU 0 instructions: 30000003 cycles: 9357571 heartbeat IPC: 3.30149 cumulative IPC: 3.20596 (Simulation time: 0 hr 16 min 34 sec) 
Heartbeat CPU 0 instructions: 40000001 cycles: 12660287 heartbeat IPC: 3.02781 cumulative IPC: 3.15949 (Simulation time: 0 hr 22 min 58 sec) 
Heartbeat CPU 0 instructions: 50000001 cycles: 15846965 heartbeat IPC: 3.13806 cumulative IPC: 3.15518 (Simulation time: 0 hr 28 min 15 sec) 

Warmup complete CPU 0 instructions: 50000001 cycles: 15846965 (Simulation time: 0 hr 28 min 15 sec) 

Heartbeat CPU 0 instructions: 60000000 cycles: 30902742 heartbeat IPC: 0.664197 cumulative IPC: 0.664197 (Simulation time: 0 hr 34 min 49 sec) 
Heartbeat CPU 0 instructions: 70000002 cycles: 39869735 heartbeat IPC: 1.1152 cumulative IPC: 0.832543 (Simulation time: 0 hr 38 min 2 sec) 
Heartbeat CPU 0 instructions: 80000003 cycles: 50924281 heartbeat IPC: 0.904605 cumulative IPC: 0.855254 (Simulation time: 0 hr 40 min 39 sec) 
Heartbeat CPU 0 instructions: 90000000 cycles: 63928254 heartbeat IPC: 0.768996 cumulative IPC: 0.831924 (Simulation time: 0 hr 44 min 41 sec) 
Heartbeat CPU 0 instructions: 100000003 cycles: 72278654 heartbeat IPC: 1.19755 cumulative IPC: 0.886027 (Simulation time: 0 hr 48 min 4 sec) 
Heartbeat CPU 0 instructions: 110000000 cycles: 87888900 heartbeat IPC: 0.640605 cumulative IPC: 0.832848 (Simulation time: 0 hr 51 min 48 sec) 
Heartbeat CPU 0 instructions: 120000002 cycles: 96268229 heartbeat IPC: 1.19341 cumulative IPC: 0.870417 (Simulation time: 0 hr 53 min 42 sec) 
Heartbeat CPU 0 instructions: 130000002 cycles: 108213548 heartbeat IPC: 0.837148 cumulative IPC: 0.866114 (Simulation time: 0 hr 55 min 59 sec) 
Heartbeat CPU 0 instructions: 140000001 cycles: 120279579 heartbeat IPC: 0.828773 cumulative IPC: 0.8618 (Simulation time: 0 hr 58 min 1 sec) 
Heartbeat CPU 0 instructions: 150000003 cycles: 128982585 heartbeat IPC: 1.14903 cumulative IPC: 0.883895 (Simulation time: 0 hr 59 min 11 sec) 
Heartbeat CPU 0 instructions: 160000000 cycles: 144379375 heartbeat IPC: 0.649486 cumulative IPC: 0.855815 (Simulation time: 1 hr 0 min 52 sec) 
Heartbeat CPU 0 instructions: 170000000 cycles: 152780242 heartbeat IPC: 1.19035 cumulative IPC: 0.876339 (Simulation time: 1 hr 1 min 47 sec) 
Heartbeat CPU 0 instructions: 180000002 cycles: 165779990 heartbeat IPC: 0.769246 cumulative IPC: 0.867054 (Simulation time: 1 hr 2 min 57 sec) 
Heartbeat CPU 0 instructions: 190000000 cycles: 176793222 heartbeat IPC: 0.907999 cumulative IPC: 0.869856 (Simulation time: 1 hr 3 min 50 sec) 
Heartbeat CPU 0 instructions: 200000000 cycles: 186638326 heartbeat IPC: 1.01573 cumulative IPC: 0.878265 (Simulation time: 1 hr 4 min 32 sec) 
Heartbeat CPU 0 instructions: 210000001 cycles: 201985836 heartbeat IPC: 0.651572 cumulative IPC: 0.859573 (Simulation time: 1 hr 5 min 28 sec) 
Heartbeat CPU 0 instructions: 220000000 cycles: 214089412 heartbeat IPC: 0.826202 cumulative IPC: 0.857536 (Simulation time: 1 hr 6 min 8 sec) 
Heartbeat CPU 0 instructions: 230000002 cycles: 228868458 heartbeat IPC: 0.676634 cumulative IPC: 0.844985 (Simulation time: 1 hr 6 min 57 sec) 
Heartbeat CPU 0 instructions: 240000000 cycles: 242257693 heartbeat IPC: 0.746868 cumulative IPC: 0.839183 (Simulation time: 1 hr 7 min 43 sec) 
Heartbeat CPU 0 instructions: 250000001 cycles: 254625031 heartbeat IPC: 0.808582 cumulative IPC: 0.837598 (Simulation time: 1 hr 8 min 22 sec) 
Finished CPU 0 instructions: 200000000 cycles: 238778066 cumulative IPC: 0.837598 (Simulation time: 1 hr 8 min 22 sec) 

ChampSim completed all CPUs

Region of Interest Statistics

CPU 0 cumulative IPC: 0.837598 instructions: 200000000 cycles: 238778066
ITLB TOTAL     ACCESS:   31041673  HIT:   31041672  MISS:          1  HIT %:        100  MISS %: 3.22148e-06   MPKI: 5e-06
ITLB LOAD TRANSLATION ACCESS:   31041673  HIT:   31041672  MISS:          1  HIT %:        100  MISS %: 3.22148e-06   MPKI: 5e-06
ITLB PREFETCH  REQUESTED:          0  ISSUED:          0  USEFUL:          0  USELESS:          0
ITLB USEFUL LOAD PREFETCHES:          0 PREFETCH ISSUED TO LOWER LEVEL:          0  ACCURACY: -nan
ITLB TIMELY PREFETCHES:          0 LATE PREFETCHES: 0 DROPPED PREFETCHES: 0
ITLB PREFETCHES SAME FILL-ORIGIN LEVEL: 0 DIFFERENT FILL-ORIGIN LEVEL: 0
ITLB AVERAGE MISS LATENCY: 320 cycles
ITLB RQ	ACCESS:   35275629	FORWARD:          0	MERGED:    4233957	TO_CACHE:   31041672

DTLB TOTAL     ACCESS:   54546673  HIT:   54439776  MISS:     106897  HIT %:     99.804  MISS %:   0.195973   MPKI: 0.534485
DTLB LOAD TRANSLATION ACCESS:   54546673  HIT:   54439776  MISS:     106897  HIT %:     99.804  MISS %:   0.195973   MPKI: 0.534485
DTLB PREFETCH  REQUESTED:          0  ISSUED:          0  USEFUL:          0  USELESS:          0
DTLB USEFUL LOAD PREFETCHES:          0 PREFETCH ISSUED TO LOWER LEVEL:          0  ACCURACY: -nan
DTLB TIMELY PREFETCHES:          0 LATE PREFETCHES: 0 DROPPED PREFETCHES: 0
DTLB PREFETCHES SAME FILL-ORIGIN LEVEL: 0 DIFFERENT FILL-ORIGIN LEVEL: 0
DTLB AVERAGE MISS LATENCY: 130.234 cycles
DTLB RQ	ACCESS:   58915549	FORWARD:          0	MERGED:    4274783	TO_CACHE:   54640766

STLB TOTAL     ACCESS:   27900366  HIT:   27804149  MISS:      96217  HIT %:    99.6551  MISS %:   0.344859   MPKI: 0.481085
STLB LOAD TRANSLATION ACCESS:     106898  HIT:      39656  MISS:      67242  HIT %:     37.097  MISS %:     62.903   MPKI: 0.33621
STLB TRANSLATION FROM L1D PREFETCHER ACCESS:   27793468  HIT:   27764493  MISS:      28975  HIT %:    99.8957  MISS %:   0.104251   MPKI: 0.144875
STLB PREFETCH  REQUESTED:          0  ISSUED:          0  USEFUL:      28975  USELESS:          0
STLB USEFUL LOAD PREFETCHES:      28975 PREFETCH ISSUED TO LOWER LEVEL:          0  ACCURACY: inf
STLB TIMELY PREFETCHES:      28975 LATE PREFETCHES: 2637 DROPPED PREFETCHES: 958454
STLB PREFETCHES SAME FILL-ORIGIN LEVEL: 0 DIFFERENT FILL-ORIGIN LEVEL: 0
STLB AVERAGE MISS LATENCY: 153.375 cycles
STLB RQ	ACCESS:   85639164	FORWARD:          0	MERGED:   56723613	TO_CACHE:   28915551

STLB Hit, L1D data hit: 0
STLB Hit, L2C data hit: 0
STLB Hit, LLC data hit: 0
STLB Hit, LLC data miss: 0
STLB STLB hints to L2: 0
L1D TOTAL     ACCESS:  114280131  HIT:  109010608  MISS:    5269523  HIT %:    95.3889  MISS %:    4.61106   MPKI: 26.3476
L1D LOAD      ACCESS:   47862476  HIT:   47411660  MISS:     450816  HIT %:    99.0581  MISS %:   0.941899   MPKI: 2.25408
L1D RFO       ACCESS:    3152584  HIT:    1804043  MISS:    1348541  HIT %:    57.2243  MISS %:    42.7757   MPKI: 6.7427
L1D PREFETCH  ACCESS:   63265071  HIT:   59794905  MISS:    3470166  HIT %:    94.5149  MISS %:    5.48512   MPKI: 17.3508
L1D PREFETCH  REQUESTED:  244828971  ISSUED:  175298575  USEFUL:    2916173  USELESS:     554052
L1D USEFUL LOAD PREFETCHES:    2916173 PREFETCH ISSUED TO LOWER LEVEL:   20577272  ACCURACY: 14.1718
L1D TIMELY PREFETCHES:    2916173 LATE PREFETCHES: 40121 DROPPED PREFETCHES: 1966047
L1D PREFETCHES SAME FILL-ORIGIN LEVEL: 3512857 DIFFERENT FILL-ORIGIN LEVEL: 17064415
L1D AVERAGE MISS LATENCY: 178.986 cycles
L1D RQ	ACCESS:   73913361	FORWARD:          0	MERGED:   25717099	TO_CACHE:   48196262
L1D WQ	ACCESS:   10719287	FORWARD:          0	MERGED:          0	TO_CACHE:   10719287
L1D PQ	ACCESS:   89766309	FORWARD:          0	MERGED:    4234043	TO_CACHE:   85532266

L1D UNIQUE REGIONS ACCESSED: 0
L1D REGIONS CONFLICTS: 0
L1D Cross Page Prefetch Requests: 27758661
L1D Same Page Prefetch Requests: 81843950
L1D ROI Sum of L1D PQ occupancy: 1509141041
L1D PREFETCHES PUSHED FROM L2C: 0
L1I TOTAL     ACCESS:   35275601  HIT:   35275551  MISS:         50  HIT %:    99.9999  MISS %: 0.000141741   MPKI: 0.00025
L1I LOAD      ACCESS:   35275601  HIT:   35275551  MISS:         50  HIT %:    99.9999  MISS %: 0.000141741   MPKI: 0.00025
L1I PREFETCH  REQUESTED:          0  ISSUED:          0  USEFUL:          0  USELESS:          0
L1I USEFUL LOAD PREFETCHES:          0 PREFETCH ISSUED TO LOWER LEVEL:          0  ACCURACY: -nan
L1I TIMELY PREFETCHES:          0 LATE PREFETCHES: 0 DROPPED PREFETCHES: 0
L1I PREFETCHES SAME FILL-ORIGIN LEVEL: 0 DIFFERENT FILL-ORIGIN LEVEL: 0
L1I AVERAGE MISS LATENCY: 231.22 cycles
L1I RQ	ACCESS:   54195775	FORWARD:          0	MERGED:   18920146	TO_CACHE:   35275629

BTB TOTAL     ACCESS:   10637190  HIT:   10637169  MISS:         21  HIT %:    99.9998  MISS %: 0.000197421   MPKI: 0.000105
BTB BRANCH_DIRECT_JUMP	ACCESS:      26624  HIT:      26622  MISS:          2
BTB BRANCH_INDIRECT	ACCESS:          0  HIT:          0  MISS:          0
BTB BRANCH_CONDITIONAL	ACCESS:   10610566  HIT:   10610547  MISS:         19
BTB BRANCH_DIRECT_CALL	ACCESS:          0  HIT:          0  MISS:          0
BTB BRANCH_INDIRECT_CALL	ACCESS:          0  HIT:          0  MISS:          0
BTB BRANCH_RETURN	ACCESS:          0  HIT:          0  MISS:          0
BTB BRANCH_OTHER ACCESS:          0  HIT:          0  MISS:          0

L2C TOTAL     ACCESS:   21786427  HIT:   17202782  MISS:    4583645  HIT %:     78.961  MISS %:     21.039   MPKI: 22.9182
L2C LOAD      ACCESS:     410741  HIT:     254729  MISS:     156012  HIT %:    62.0169  MISS %:    37.9831   MPKI: 0.78006
L2C DATA LOAD MPKI: 0.77981
L2C INSTRUCTION LOAD MPKI: 0.00025
L2C RFO       ACCESS:    1348541  HIT:          0  MISS:    1348541  HIT %:          0  MISS %:        100   MPKI: 6.7427
L2C PREFETCH  ACCESS:   17618199  HIT:   14586369  MISS:    3031830  HIT %:    82.7915  MISS %:    17.2085   MPKI: 15.1592
L2C DATA PREFETCH MPKI: 15.1592
L2C INSTRUCTION PREFETCH MPKI: 0
L2C WRITEBACK ACCESS:    1350678  HIT:    1323427  MISS:      27251  HIT %:    97.9824  MISS %:    2.01758   MPKI: 0.136255
L2C LOAD TRANSLATION ACCESS:      67312  HIT:      55361  MISS:      11951  HIT %:    82.2454  MISS %:    17.7546   MPKI: 0.059755
L2C TRANSLATION FROM L1D PREFETCHER ACCESS:     990956  HIT:     982896  MISS:       8060  HIT %:    99.1866  MISS %:   0.813356   MPKI: 0.0403
L2C PREFETCH  REQUESTED:          0  ISSUED:          0  USEFUL:     240854  USELESS:    2802438
L2C USEFUL LOAD PREFETCHES:     240854 PREFETCH ISSUED TO LOWER LEVEL:    3104494  ACCURACY: 7.75824
L2C TIMELY PREFETCHES:     240854 LATE PREFETCHES: 72658 DROPPED PREFETCHES: 0
L2C PREFETCHES SAME FILL-ORIGIN LEVEL: 1382323 DIFFERENT FILL-ORIGIN LEVEL: 0
L2C AVERAGE MISS LATENCY: 266.519 cycles
L2C RQ	ACCESS:    2817557	FORWARD:          0	MERGED:          0	TO_CACHE:    2817553
L2C WQ	ACCESS:    1350678	FORWARD:          4	MERGED:          0	TO_CACHE:    1350678
L2C PQ	ACCESS:   20552941	FORWARD:          0	MERGED:       2330	TO_CACHE:   20550611

L2C Instructions Evicting Data 50
L2C Translations Evicting Data 19911
L2C Data Evicting Data 4516467
L2C Instructions Evicting Instructions 0
L2C Translations Evicting Instructions 0
L2C Data Evicting Instructions 50
L2C Instructions Evicting Translations 0
L2C Translations Evicting Translations 100
L2C Data Evicting Translations 19816
L2C Dense regions hint from L2: 0
PSCL5 TOTAL     ACCESS:    1057277  HIT:    1057277  MISS:          0  HIT %:        100  MISS %:          0   MPKI: 0
PSCL5 LOAD TRANSLATION ACCESS:      67211  HIT:      67211  MISS:          0  HIT %:        100  MISS %:          0   MPKI: 0
PSCL5 TRANSLATION FROM L1D PREFETCHER ACCESS:     990066  HIT:     990066  MISS:          0  HIT %:        100  MISS %:          0   MPKI: 0
PSCL5 PREFETCH  REQUESTED:          0  ISSUED:          0  USEFUL:          0  USELESS:          0
PSCL5 USEFUL LOAD PREFETCHES:          0 PREFETCH ISSUED TO LOWER LEVEL:          0  ACCURACY: -nan
PSCL5 TIMELY PREFETCHES:          0 LATE PREFETCHES: 0 DROPPED PREFETCHES: 0
PSCL5 PREFETCHES SAME FILL-ORIGIN LEVEL: 0 DIFFERENT FILL-ORIGIN LEVEL: 0

PSCL4 TOTAL     ACCESS:    1057277  HIT:    1057277  MISS:          0  HIT %:        100  MISS %:          0   MPKI: 0
PSCL4 LOAD TRANSLATION ACCESS:      67211  HIT:      67211  MISS:          0  HIT %:        100  MISS %:          0   MPKI: 0
PSCL4 TRANSLATION FROM L1D PREFETCHER ACCESS:     990066  HIT:     990066  MISS:          0  HIT %:        100  MISS %:          0   MPKI: 0
PSCL4 PREFETCH  REQUESTED:          0  ISSUED:          0  USEFUL:          0  USELESS:          0
PSCL4 USEFUL LOAD PREFETCHES:          0 PREFETCH ISSUED TO LOWER LEVEL:          0  ACCURACY: -nan
PSCL4 TIMELY PREFETCHES:          0 LATE PREFETCHES: 0 DROPPED PREFETCHES: 0
PSCL4 PREFETCHES SAME FILL-ORIGIN LEVEL: 0 DIFFERENT FILL-ORIGIN LEVEL: 0

PSCL3 TOTAL     ACCESS:    1051876  HIT:    1051869  MISS:          7  HIT %:    99.9993  MISS %: 0.000665478   MPKI: 3.5e-05
PSCL3 LOAD TRANSLATION ACCESS:      66791  HIT:      66784  MISS:          7  HIT %:    99.9895  MISS %:  0.0104805   MPKI: 3.5e-05
PSCL3 TRANSLATION FROM L1D PREFETCHER ACCESS:     985085  HIT:     985085  MISS:          0  HIT %:        100  MISS %:          0   MPKI: 0
PSCL3 PREFETCH  REQUESTED:          0  ISSUED:          0  USEFUL:          0  USELESS:          0
PSCL3 USEFUL LOAD PREFETCHES:          0 PREFETCH ISSUED TO LOWER LEVEL:          0  ACCURACY: -nan
PSCL3 TIMELY PREFETCHES:          0 LATE PREFETCHES: 0 DROPPED PREFETCHES: 0
PSCL3 PREFETCHES SAME FILL-ORIGIN LEVEL: 0 DIFFERENT FILL-ORIGIN LEVEL: 0

PSCL2 TOTAL     ACCESS:    1054624  HIT:    1054351  MISS:        273  HIT %:    99.9741  MISS %:   0.025886   MPKI: 0.001365
PSCL2 LOAD TRANSLATION ACCESS:      67238  HIT:      66965  MISS:        273  HIT %:     99.594  MISS %:    0.40602   MPKI: 0.001365
PSCL2 TRANSLATION FROM L1D PREFETCHER ACCESS:     987386  HIT:     987386  MISS:          0  HIT %:        100  MISS %:          0   MPKI: 0
PSCL2 PREFETCH  REQUESTED:          0  ISSUED:          0  USEFUL:          0  USELESS:          0
PSCL2 USEFUL LOAD PREFETCHES:          0 PREFETCH ISSUED TO LOWER LEVEL:          0  ACCURACY: -nan
PSCL2 TIMELY PREFETCHES:          0 LATE PREFETCHES: 0 DROPPED PREFETCHES: 0
PSCL2 PREFETCHES SAME FILL-ORIGIN LEVEL: 0 DIFFERENT FILL-ORIGIN LEVEL: 0

LLC TOTAL     ACCESS:    5901688  HIT:    1366749  MISS:    4534939  HIT %:    23.1586  MISS %:    76.8414   MPKI: 22.6747
LLC LOAD      ACCESS:      83354  HIT:       1882  MISS:      81472  HIT %:    2.25784  MISS %:    97.7422   MPKI: 0.40736
LLC RFO       ACCESS:    1348541  HIT:          1  MISS:    1348540  HIT %: 7.41542e-05  MISS %:    99.9999   MPKI: 6.7427
LLC PREFETCH  ACCESS:    3104488  HIT:      39635  MISS:    3064853  HIT %:     1.2767  MISS %:    98.7233   MPKI: 15.3243
LLC WRITEBACK ACCESS:    1345294  HIT:    1324949  MISS:      20345  HIT %:    98.4877  MISS %:    1.51231   MPKI: 0.101725
LLC LOAD TRANSLATION ACCESS:      11951  HIT:        132  MISS:      11819  HIT %:    1.10451  MISS %:    98.8955   MPKI: 0.059095
LLC TRANSLATION FROM L1D PREFETCHER ACCESS:       8060  HIT:        150  MISS:       7910  HIT %:    1.86104  MISS %:     98.139   MPKI: 0.03955
LLC PREFETCH  REQUESTED:          0  ISSUED:          0  USEFUL:       1573  USELESS:    3081806
LLC USEFUL LOAD PREFETCHES:       1573 PREFETCH ISSUED TO LOWER LEVEL:    3064859  ACCURACY: 0.0513237
LLC TIMELY PREFETCHES:       1573 LATE PREFETCHES: 0 DROPPED PREFETCHES: 0
LLC PREFETCHES SAME FILL-ORIGIN LEVEL: 0 DIFFERENT FILL-ORIGIN LEVEL: 0
LLC AVERAGE MISS LATENCY: 241.072 cycles
LLC RQ	ACCESS:    1451909	FORWARD:          0	MERGED:          0	TO_CACHE:    1451909
LLC WQ	ACCESS:    1345294	FORWARD:          0	MERGED:          0	TO_CACHE:    1345294
LLC PQ	ACCESS:    3104494	FORWARD:          0	MERGED:          0	TO_CACHE:    3104494

LLC Dense regions hint to LLC: 0

RAW hits: 17
Loads Generated: 73913377
Loads sent to L1D: 73913361
Stores Generated: 10719286
Stores sent to L1D: 10719287
Major fault: 0 Minor fault: 51871
Allocated PAGES: 51871

DRAM Statistics
 CHANNEL 0
 RQ ROW_BUFFER_HIT:     705984  ROW_BUFFER_MISS:    3808610
 DBUS_CONGESTED:       1405
 WQ ROW_BUFFER_HIT:     316966  ROW_BUFFER_MISS:    1021334  FULL:          0

 AVG_CONGESTED_CYCLE: 3
 All warmup complete: 2
Channel 0 Bank busy for read cycles: 0
Channel 0 Bank busy for write cycles: 0
Channel 0
Rank 0
0banks busy for read cycles: 783899
0banks busy for write cycles: 3100
1banks busy for read cycles: 37935192
1banks busy for write cycles: 881445
2banks busy for read cycles: 48181685
2banks busy for write cycles: 901637
3banks busy for read cycles: 37168713
3banks busy for write cycles: 876802
4banks busy for read cycles: 26819807
4banks busy for write cycles: 894662
5banks busy for read cycles: 14758221
5banks busy for write cycles: 926452
6banks busy for read cycles: 10754216
6banks busy for write cycles: 989259
7banks busy for read cycles: 7640194
7banks busy for write cycles: 2758575
8banks busy for read cycles: 9478304
8banks busy for write cycles: 37025904

CPU 0 Branch Prediction Accuracy: 99.9972% MPKI: 0.00149 Average ROB Occupancy at Mispredict: 227.48
Branch types
NOT_BRANCH: 189359360 94.6797%
BRANCH_DIRECT_JUMP: 26624 0.013312%
BRANCH_INDIRECT: 0 0%
BRANCH_CONDITIONAL: 10613669 5.30683%
BRANCH_DIRECT_CALL: 0 0%
BRANCH_INDIRECT_CALL: 0 0%
BRANCH_RETURN: 0 0%
BRANCH_OTHER: 0 0%

DRAM PAGES: 1048576
Allocated PAGES: 51871
