 (TOTAL 67349)
 
*** ChampSim Multicore Out-of-Order Simulator ***

Warmup Instructions: 50000000
Simulation Instructions: 200000000
Number of CPUs: 1
LLC sets: 2048
LLC ways: 16
Off-chip DRAM Size: 4096 MB Channels: 1 Width: 64-bit Data Rate: 6400 MT/s
argv[0]: ./ChampSim/Berti/bin/tagescl8kb-no-vberti-no-no-no-no-no-lru-lru-lru-srrip-drrip-lru-lru-lru-1core-no
argv[1]: -warmup_instructions
argv[2]: 50000000
argv[3]: -simulation_instructions
argv[4]: 200000000
argv[5]: -traces
argv[6]: traces/spec2k17_ten/654.roms_s-1613B.champsimtrace.xz
CPU 0 runs traces/spec2k17_ten/654.roms_s-1613B.champsimtrace.xz
.xz
CPU 0 Tage branch predictor
BTB has LRU replacement policy
ITLB has LRU replacement policy
DTLB has LRU replacement policy
STLB has LRU replacement policy
L1I has LRU replacement policy
History Sets: 8
History Ways: 16
BERTI Size: 16
BERTI Stride Size: 16
L1D has LRU replacement policy
Initialize SRRIP state for L2C
Initialize DRRIP state for LLC
Heartbeat CPU 0 instructions: 10000001 cycles: 2910522 heartbeat IPC: 3.43581 cumulative IPC: 3.43581 (Simulation time: 0 hr 4 min 46 sec) 
Heartbeat CPU 0 instructions: 20000000 cycles: 5820918 heartbeat IPC: 3.43596 cumulative IPC: 3.43588 (Simulation time: 0 hr 10 min 37 sec) 
Heartbeat CPU 0 instructions: 30000000 cycles: 8731348 heartbeat IPC: 3.43592 cumulative IPC: 3.4359 (Simulation time: 0 hr 15 min 26 sec) 
Heartbeat CPU 0 instructions: 40000000 cycles: 11641763 heartbeat IPC: 3.43594 cumulative IPC: 3.43591 (Simulation time: 0 hr 20 min 2 sec) 
Heartbeat CPU 0 instructions: 50000001 cycles: 15084408 heartbeat IPC: 2.90474 cumulative IPC: 3.31468 (Simulation time: 0 hr 24 min 15 sec) 

Warmup complete CPU 0 instructions: 50000001 cycles: 15084408 (Simulation time: 0 hr 24 min 15 sec) 

Heartbeat CPU 0 instructions: 60000001 cycles: 31695911 heartbeat IPC: 0.601992 cumulative IPC: 0.601992 (Simulation time: 0 hr 28 min 14 sec) 
Heartbeat CPU 0 instructions: 70000003 cycles: 48284118 heartbeat IPC: 0.602838 cumulative IPC: 0.602415 (Simulation time: 0 hr 31 min 55 sec) 
Heartbeat CPU 0 instructions: 80000000 cycles: 64862711 heartbeat IPC: 0.603187 cumulative IPC: 0.602672 (Simulation time: 0 hr 34 min 51 sec) 
Heartbeat CPU 0 instructions: 90000001 cycles: 81435447 heartbeat IPC: 0.603401 cumulative IPC: 0.602854 (Simulation time: 0 hr 38 min 5 sec) 
Heartbeat CPU 0 instructions: 100000000 cycles: 98011179 heartbeat IPC: 0.603292 cumulative IPC: 0.602942 (Simulation time: 0 hr 40 min 53 sec) 
Heartbeat CPU 0 instructions: 110000000 cycles: 114586462 heartbeat IPC: 0.603308 cumulative IPC: 0.603003 (Simulation time: 0 hr 43 min 51 sec) 
Heartbeat CPU 0 instructions: 120000001 cycles: 135853124 heartbeat IPC: 0.47022 cumulative IPC: 0.57962 (Simulation time: 0 hr 46 min 53 sec) 
Heartbeat CPU 0 instructions: 130000000 cycles: 152430494 heartbeat IPC: 0.603232 cumulative IPC: 0.58247 (Simulation time: 0 hr 49 min 20 sec) 
Heartbeat CPU 0 instructions: 140000003 cycles: 169006730 heartbeat IPC: 0.603273 cumulative IPC: 0.584711 (Simulation time: 0 hr 51 min 24 sec) 
Heartbeat CPU 0 instructions: 150000001 cycles: 185582355 heartbeat IPC: 0.603295 cumulative IPC: 0.586517 (Simulation time: 0 hr 52 min 58 sec) 
Heartbeat CPU 0 instructions: 160000002 cycles: 202155681 heartbeat IPC: 0.603379 cumulative IPC: 0.588011 (Simulation time: 0 hr 54 min 26 sec) 
Heartbeat CPU 0 instructions: 170000002 cycles: 218730548 heartbeat IPC: 0.603323 cumulative IPC: 0.589257 (Simulation time: 0 hr 55 min 51 sec) 
Heartbeat CPU 0 instructions: 180000000 cycles: 235306053 heartbeat IPC: 0.6033 cumulative IPC: 0.590314 (Simulation time: 0 hr 57 min 12 sec) 
Heartbeat CPU 0 instructions: 190000000 cycles: 251881890 heartbeat IPC: 0.603288 cumulative IPC: 0.591223 (Simulation time: 0 hr 58 min 18 sec) 
Heartbeat CPU 0 instructions: 200000003 cycles: 272997422 heartbeat IPC: 0.473585 cumulative IPC: 0.581591 (Simulation time: 0 hr 59 min 30 sec) 
Heartbeat CPU 0 instructions: 210000001 cycles: 289575517 heartbeat IPC: 0.603206 cumulative IPC: 0.582897 (Simulation time: 1 hr 0 min 32 sec) 
Heartbeat CPU 0 instructions: 220000000 cycles: 306151567 heartbeat IPC: 0.60328 cumulative IPC: 0.584058 (Simulation time: 1 hr 1 min 34 sec) 
Heartbeat CPU 0 instructions: 230000003 cycles: 322727055 heartbeat IPC: 0.603301 cumulative IPC: 0.585094 (Simulation time: 1 hr 2 min 24 sec) 
Heartbeat CPU 0 instructions: 240000003 cycles: 339299713 heartbeat IPC: 0.603404 cumulative IPC: 0.58603 (Simulation time: 1 hr 3 min 3 sec) 
Heartbeat CPU 0 instructions: 250000000 cycles: 355875748 heartbeat IPC: 0.60328 cumulative IPC: 0.586869 (Simulation time: 1 hr 3 min 40 sec) 
Finished CPU 0 instructions: 200000000 cycles: 340791357 cumulative IPC: 0.586869 (Simulation time: 1 hr 3 min 40 sec) 

ChampSim completed all CPUs

Region of Interest Statistics

CPU 0 cumulative IPC: 0.586869 instructions: 200000000 cycles: 340791357
ITLB TOTAL     ACCESS:   30455196  HIT:   30455188  MISS:          8  HIT %:        100  MISS %: 2.62681e-05   MPKI: 4e-05
ITLB LOAD TRANSLATION ACCESS:   30455196  HIT:   30455188  MISS:          8  HIT %:        100  MISS %: 2.62681e-05   MPKI: 4e-05
ITLB PREFETCH  REQUESTED:          0  ISSUED:          0  USEFUL:          0  USELESS:          0
ITLB USEFUL LOAD PREFETCHES:          0 PREFETCH ISSUED TO LOWER LEVEL:          0  ACCURACY: -nan
ITLB TIMELY PREFETCHES:          0 LATE PREFETCHES: 0 DROPPED PREFETCHES: 0
ITLB PREFETCHES SAME FILL-ORIGIN LEVEL: 0 DIFFERENT FILL-ORIGIN LEVEL: 0
ITLB AVERAGE MISS LATENCY: 245 cycles
ITLB RQ	ACCESS:   39719755	FORWARD:          0	MERGED:    9264559	TO_CACHE:   30455196

DTLB TOTAL     ACCESS:   41566994  HIT:   41554795  MISS:      12199  HIT %:    99.9707  MISS %:  0.0293478   MPKI: 0.060995
DTLB LOAD TRANSLATION ACCESS:   41566994  HIT:   41554795  MISS:      12199  HIT %:    99.9707  MISS %:  0.0293478   MPKI: 0.060995
DTLB PREFETCH  REQUESTED:          0  ISSUED:          0  USEFUL:          0  USELESS:          0
DTLB USEFUL LOAD PREFETCHES:          0 PREFETCH ISSUED TO LOWER LEVEL:          0  ACCURACY: -nan
DTLB TIMELY PREFETCHES:          0 LATE PREFETCHES: 0 DROPPED PREFETCHES: 0
DTLB PREFETCHES SAME FILL-ORIGIN LEVEL: 0 DIFFERENT FILL-ORIGIN LEVEL: 0
DTLB AVERAGE MISS LATENCY: 75.626 cycles
DTLB RQ	ACCESS:   49863615	FORWARD:          0	MERGED:    8283425	TO_CACHE:   41580190

STLB TOTAL     ACCESS:    5625708  HIT:    5614345  MISS:      11363  HIT %:     99.798  MISS %:   0.201983   MPKI: 0.056815
STLB LOAD TRANSLATION ACCESS:      12207  HIT:       5079  MISS:       7128  HIT %:    41.6073  MISS %:    58.3927   MPKI: 0.03564
STLB TRANSLATION FROM L1D PREFETCHER ACCESS:    5613501  HIT:    5609266  MISS:       4235  HIT %:    99.9246  MISS %:  0.0754431   MPKI: 0.021175
STLB PREFETCH  REQUESTED:          0  ISSUED:          0  USEFUL:       4235  USELESS:          0
STLB USEFUL LOAD PREFETCHES:       4235 PREFETCH ISSUED TO LOWER LEVEL:          0  ACCURACY: inf
STLB TIMELY PREFETCHES:       4235 LATE PREFETCHES: 322 DROPPED PREFETCHES: 60543
STLB PREFETCHES SAME FILL-ORIGIN LEVEL: 0 DIFFERENT FILL-ORIGIN LEVEL: 0
STLB AVERAGE MISS LATENCY: 92.1576 cycles
STLB RQ	ACCESS:   27467210	FORWARD:          0	MERGED:   21770713	TO_CACHE:    5696497

STLB Hit, L1D data hit: 0
STLB Hit, L2C data hit: 0
STLB Hit, LLC data hit: 0
STLB Hit, LLC data miss: 0
STLB STLB hints to L2: 0
L1D TOTAL     ACCESS:   72455835  HIT:   71874631  MISS:     581204  HIT %:    99.1979  MISS %:   0.802149   MPKI: 2.90602
L1D LOAD      ACCESS:   29517227  HIT:   29445027  MISS:      72200  HIT %:    99.7554  MISS %:   0.244603   MPKI: 0.361
L1D RFO       ACCESS:   19383621  HIT:   19160496  MISS:     223125  HIT %:    98.8489  MISS %:     1.1511   MPKI: 1.11563
L1D PREFETCH  ACCESS:   23554987  HIT:   23269108  MISS:     285879  HIT %:    98.7863  MISS %:    1.21367   MPKI: 1.42939
L1D PREFETCH  REQUESTED:   56566603  ISSUED:   56472082  USEFUL:     263497  USELESS:      22393
L1D USEFUL LOAD PREFETCHES:     263497 PREFETCH ISSUED TO LOWER LEVEL:    3346268  ACCURACY: 7.87435
L1D TIMELY PREFETCHES:     263497 LATE PREFETCHES: 4069 DROPPED PREFETCHES: 125067
L1D PREFETCHES SAME FILL-ORIGIN LEVEL: 289948 DIFFERENT FILL-ORIGIN LEVEL: 3056320
L1D AVERAGE MISS LATENCY: 174.102 cycles
L1D RQ	ACCESS:   40096801	FORWARD:          0	MERGED:   10492703	TO_CACHE:   29579730
L1D WQ	ACCESS:   21712373	FORWARD:      24370	MERGED:    1428488	TO_CACHE:   20283885
L1D PQ	ACCESS:   29017079	FORWARD:          0	MERGED:    1562074	TO_CACHE:   27455003

L1D UNIQUE REGIONS ACCESSED: 0
L1D REGIONS CONFLICTS: 0
L1D Cross Page Prefetch Requests: 2927808
L1D Same Page Prefetch Requests: 35324246
L1D ROI Sum of L1D PQ occupancy: 424235966
L1D PREFETCHES PUSHED FROM L2C: 0
L1I TOTAL     ACCESS:   39719735  HIT:   39719629  MISS:        106  HIT %:    99.9997  MISS %: 0.00026687   MPKI: 0.00053
L1I LOAD      ACCESS:   39719735  HIT:   39719629  MISS:        106  HIT %:    99.9997  MISS %: 0.00026687   MPKI: 0.00053
L1I PREFETCH  REQUESTED:          0  ISSUED:          0  USEFUL:          0  USELESS:          0
L1I USEFUL LOAD PREFETCHES:          0 PREFETCH ISSUED TO LOWER LEVEL:          0  ACCURACY: -nan
L1I TIMELY PREFETCHES:          0 LATE PREFETCHES: 0 DROPPED PREFETCHES: 0
L1I PREFETCHES SAME FILL-ORIGIN LEVEL: 0 DIFFERENT FILL-ORIGIN LEVEL: 0
L1I AVERAGE MISS LATENCY: 174.123 cycles
L1I RQ	ACCESS:   57172581	FORWARD:          0	MERGED:   17452826	TO_CACHE:   39719755

BTB TOTAL     ACCESS:   13350901  HIT:   11926181  MISS:    1424720  HIT %:    89.3287  MISS %:    10.6713   MPKI: 7.1236
BTB BRANCH_DIRECT_JUMP	ACCESS:    1424895  HIT:    1424857  MISS:         38
BTB BRANCH_INDIRECT	ACCESS:         16  HIT:         15  MISS:          1
BTB BRANCH_CONDITIONAL	ACCESS:    6226070  HIT:    6225943  MISS:        127
BTB BRANCH_DIRECT_CALL	ACCESS:    2849960  HIT:    2849915  MISS:         45
BTB BRANCH_INDIRECT_CALL	ACCESS:          0  HIT:          0  MISS:          0
BTB BRANCH_RETURN	ACCESS:    2849960  HIT:    1425451  MISS:    1424509
BTB BRANCH_OTHER ACCESS:          0  HIT:          0  MISS:          0

L2C TOTAL     ACCESS:    3574146  HIT:    2968797  MISS:     605349  HIT %:    83.0631  MISS %:    16.9369   MPKI: 3.02675
L2C LOAD      ACCESS:      68237  HIT:      36477  MISS:      31760  HIT %:    53.4563  MISS %:    46.5437   MPKI: 0.1588
L2C DATA LOAD MPKI: 0.15827
L2C INSTRUCTION LOAD MPKI: 0.00053
L2C RFO       ACCESS:     223125  HIT:          1  MISS:     223124  HIT %: 0.000448179  MISS %:    99.9996   MPKI: 1.11562
L2C PREFETCH  ACCESS:    2987448  HIT:    2643190  MISS:     344258  HIT %:    88.4765  MISS %:    11.5235   MPKI: 1.72129
L2C DATA PREFETCH MPKI: 1.72129
L2C INSTRUCTION PREFETCH MPKI: 0
L2C WRITEBACK ACCESS:     223138  HIT:     219057  MISS:       4081  HIT %:    98.1711  MISS %:    1.82891   MPKI: 0.020405
L2C LOAD TRANSLATION ACCESS:       7097  HIT:       6011  MISS:       1086  HIT %:    84.6978  MISS %:    15.3022   MPKI: 0.00543
L2C TRANSLATION FROM L1D PREFETCHER ACCESS:      65101  HIT:      64061  MISS:       1040  HIT %:    98.4025  MISS %:    1.59752   MPKI: 0.0052
L2C PREFETCH  REQUESTED:          0  ISSUED:          0  USEFUL:      37492  USELESS:     307169
L2C USEFUL LOAD PREFETCHES:      37492 PREFETCH ISSUED TO LOWER LEVEL:     364739  ACCURACY: 10.2791
L2C TIMELY PREFETCHES:      37492 LATE PREFETCHES: 20481 DROPPED PREFETCHES: 0
L2C PREFETCHES SAME FILL-ORIGIN LEVEL: 228105 DIFFERENT FILL-ORIGIN LEVEL: 0
L2C AVERAGE MISS LATENCY: 231.482 cycles
L2C RQ	ACCESS:     363560	FORWARD:          0	MERGED:          0	TO_CACHE:     363560
L2C WQ	ACCESS:     223138	FORWARD:          0	MERGED:          0	TO_CACHE:     223138
L2C PQ	ACCESS:    3345988	FORWARD:          0	MERGED:        391	TO_CACHE:    3345597

L2C Instructions Evicting Data 103
L2C Translations Evicting Data 2111
L2C Data Evicting Data 596812
L2C Instructions Evicting Instructions 0
L2C Translations Evicting Instructions 3
L2C Data Evicting Instructions 115
L2C Instructions Evicting Translations 3
L2C Translations Evicting Translations 12
L2C Data Evicting Translations 2109
L2C Dense regions hint from L2: 0
PSCL5 TOTAL     ACCESS:      72193  HIT:      72193  MISS:          0  HIT %:        100  MISS %:          0   MPKI: 0
PSCL5 LOAD TRANSLATION ACCESS:       7093  HIT:       7093  MISS:          0  HIT %:        100  MISS %:          0   MPKI: 0
PSCL5 TRANSLATION FROM L1D PREFETCHER ACCESS:      65100  HIT:      65100  MISS:          0  HIT %:        100  MISS %:          0   MPKI: 0
PSCL5 PREFETCH  REQUESTED:          0  ISSUED:          0  USEFUL:          0  USELESS:          0
PSCL5 USEFUL LOAD PREFETCHES:          0 PREFETCH ISSUED TO LOWER LEVEL:          0  ACCURACY: -nan
PSCL5 TIMELY PREFETCHES:          0 LATE PREFETCHES: 0 DROPPED PREFETCHES: 0
PSCL5 PREFETCHES SAME FILL-ORIGIN LEVEL: 0 DIFFERENT FILL-ORIGIN LEVEL: 0

PSCL4 TOTAL     ACCESS:      72193  HIT:      72193  MISS:          0  HIT %:        100  MISS %:          0   MPKI: 0
PSCL4 LOAD TRANSLATION ACCESS:       7093  HIT:       7093  MISS:          0  HIT %:        100  MISS %:          0   MPKI: 0
PSCL4 TRANSLATION FROM L1D PREFETCHER ACCESS:      65100  HIT:      65100  MISS:          0  HIT %:        100  MISS %:          0   MPKI: 0
PSCL4 PREFETCH  REQUESTED:          0  ISSUED:          0  USEFUL:          0  USELESS:          0
PSCL4 USEFUL LOAD PREFETCHES:          0 PREFETCH ISSUED TO LOWER LEVEL:          0  ACCURACY: -nan
PSCL4 TIMELY PREFETCHES:          0 LATE PREFETCHES: 0 DROPPED PREFETCHES: 0
PSCL4 PREFETCHES SAME FILL-ORIGIN LEVEL: 0 DIFFERENT FILL-ORIGIN LEVEL: 0

PSCL3 TOTAL     ACCESS:      72193  HIT:      72193  MISS:          0  HIT %:        100  MISS %:          0   MPKI: 0
PSCL3 LOAD TRANSLATION ACCESS:       7093  HIT:       7093  MISS:          0  HIT %:        100  MISS %:          0   MPKI: 0
PSCL3 TRANSLATION FROM L1D PREFETCHER ACCESS:      65100  HIT:      65100  MISS:          0  HIT %:        100  MISS %:          0   MPKI: 0
PSCL3 PREFETCH  REQUESTED:          0  ISSUED:          0  USEFUL:          0  USELESS:          0
PSCL3 USEFUL LOAD PREFETCHES:          0 PREFETCH ISSUED TO LOWER LEVEL:          0  ACCURACY: -nan
PSCL3 TIMELY PREFETCHES:          0 LATE PREFETCHES: 0 DROPPED PREFETCHES: 0
PSCL3 PREFETCHES SAME FILL-ORIGIN LEVEL: 0 DIFFERENT FILL-ORIGIN LEVEL: 0

PSCL2 TOTAL     ACCESS:      72128  HIT:      72112  MISS:         16  HIT %:    99.9778  MISS %:  0.0221828   MPKI: 8e-05
PSCL2 LOAD TRANSLATION ACCESS:       7094  HIT:       7078  MISS:         16  HIT %:    99.7745  MISS %:   0.225543   MPKI: 8e-05
PSCL2 TRANSLATION FROM L1D PREFETCHER ACCESS:      65034  HIT:      65034  MISS:          0  HIT %:        100  MISS %:          0   MPKI: 0
PSCL2 PREFETCH  REQUESTED:          0  ISSUED:          0  USEFUL:          0  USELESS:          0
PSCL2 USEFUL LOAD PREFETCHES:          0 PREFETCH ISSUED TO LOWER LEVEL:          0  ACCURACY: -nan
PSCL2 TIMELY PREFETCHES:          0 LATE PREFETCHES: 0 DROPPED PREFETCHES: 0
PSCL2 PREFETCHES SAME FILL-ORIGIN LEVEL: 0 DIFFERENT FILL-ORIGIN LEVEL: 0

LLC TOTAL     ACCESS:     824976  HIT:     139306  MISS:     685670  HIT %:    16.8861  MISS %:    83.1139   MPKI: 3.42835
LLC LOAD      ACCESS:      11279  HIT:         11  MISS:      11268  HIT %:  0.0975264  MISS %:    99.9025   MPKI: 0.05634
LLC RFO       ACCESS:     223124  HIT:       4984  MISS:     218140  HIT %:    2.23374  MISS %:    97.7663   MPKI: 1.0907
LLC PREFETCH  ACCESS:     364739  HIT:      11751  MISS:     352988  HIT %:    3.22176  MISS %:    96.7782   MPKI: 1.76494
LLC WRITEBACK ACCESS:     223708  HIT:     122544  MISS:     101164  HIT %:    54.7786  MISS %:    45.2214   MPKI: 0.50582
LLC LOAD TRANSLATION ACCESS:       1086  HIT:          6  MISS:       1080  HIT %:   0.552486  MISS %:    99.4475   MPKI: 0.0054
LLC TRANSLATION FROM L1D PREFETCHER ACCESS:       1040  HIT:         10  MISS:       1030  HIT %:   0.961538  MISS %:    99.0385   MPKI: 0.00515
LLC PREFETCH  REQUESTED:          0  ISSUED:          0  USEFUL:         13  USELESS:     370646
LLC USEFUL LOAD PREFETCHES:         13 PREFETCH ISSUED TO LOWER LEVEL:     352988  ACCURACY: 0.00368284
LLC TIMELY PREFETCHES:         13 LATE PREFETCHES: 0 DROPPED PREFETCHES: 0
LLC PREFETCHES SAME FILL-ORIGIN LEVEL: 0 DIFFERENT FILL-ORIGIN LEVEL: 0
LLC AVERAGE MISS LATENCY: 182.591 cycles
LLC RQ	ACCESS:     236529	FORWARD:          0	MERGED:          0	TO_CACHE:     236529
LLC WQ	ACCESS:     223708	FORWARD:          0	MERGED:          0	TO_CACHE:     223708
LLC PQ	ACCESS:     364739	FORWARD:          0	MERGED:          0	TO_CACHE:     364739

LLC Dense regions hint to LLC: 0

RAW hits: 5673544
Loads Generated: 45770345
Loads sent to L1D: 40096801
Stores Generated: 21712370
Stores sent to L1D: 21712373
Major fault: 0 Minor fault: 7557
Allocated PAGES: 7557

DRAM Statistics
 CHANNEL 0
 RQ ROW_BUFFER_HIT:     152941  ROW_BUFFER_MISS:     431559
 DBUS_CONGESTED:         22
 WQ ROW_BUFFER_HIT:      29174  ROW_BUFFER_MISS:     168971  FULL:        106

 AVG_CONGESTED_CYCLE: 5
 All warmup complete: 2
Channel 0 Bank busy for read cycles: 0
Channel 0 Bank busy for write cycles: 0
Channel 0
Rank 0
0banks busy for read cycles: 290389505
0banks busy for write cycles: 58014
1banks busy for read cycles: 23209224
1banks busy for write cycles: 9028467
2banks busy for read cycles: 6462402
2banks busy for write cycles: 511467
3banks busy for read cycles: 1900842
3banks busy for write cycles: 195363
4banks busy for read cycles: 1640700
4banks busy for write cycles: 101192
5banks busy for read cycles: 1271072
5banks busy for write cycles: 59048
6banks busy for read cycles: 1036064
6banks busy for write cycles: 44628
7banks busy for read cycles: 609480
7banks busy for write cycles: 224914
8banks busy for read cycles: 1170065
8banks busy for write cycles: 2878911

CPU 0 Branch Prediction Accuracy: 99.9977% MPKI: 0.00151 Average ROB Occupancy at Mispredict: 18.3046
Branch types
NOT_BRANCH: 179514585 89.7573%
BRANCH_DIRECT_JUMP: 1424895 0.712448%
BRANCH_INDIRECT: 16 8e-06%
BRANCH_CONDITIONAL: 13360262 6.68013%
BRANCH_DIRECT_CALL: 2849960 1.42498%
BRANCH_INDIRECT_CALL: 0 0%
BRANCH_RETURN: 2849960 1.42498%
BRANCH_OTHER: 0 0%

DRAM PAGES: 1048576
Allocated PAGES: 7557
