 (TOTAL 67349)
 
*** ChampSim Multicore Out-of-Order Simulator ***

Warmup Instructions: 50000000
Simulation Instructions: 200000000
Number of CPUs: 1
LLC sets: 2048
LLC ways: 16
Off-chip DRAM Size: 4096 MB Channels: 1 Width: 64-bit Data Rate: 6400 MT/s
argv[0]: ./ChampSim/Berti/bin/tagescl8kb-no-vberti-no-no-no-no-no-lru-lru-lru-srrip-drrip-lru-lru-lru-1core-no
argv[1]: -warmup_instructions
argv[2]: 50000000
argv[3]: -simulation_instructions
argv[4]: 200000000
argv[5]: -traces
argv[6]: traces/spec2k17_ten/654.roms_s-294B.champsimtrace.xz
CPU 0 runs traces/spec2k17_ten/654.roms_s-294B.champsimtrace.xz
.xz
CPU 0 Tage branch predictor
BTB has LRU replacement policy
ITLB has LRU replacement policy
DTLB has LRU replacement policy
STLB has LRU replacement policy
L1I has LRU replacement policy
History Sets: 8
History Ways: 16
BERTI Size: 16
BERTI Stride Size: 16
L1D has LRU replacement policy
Initialize SRRIP state for L2C
Initialize DRRIP state for LLC
Heartbeat CPU 0 instructions: 10000001 cycles: 3208520 heartbeat IPC: 3.1167 cumulative IPC: 3.1167 (Simulation time: 0 hr 6 min 15 sec) 
Heartbeat CPU 0 instructions: 20000000 cycles: 6417079 heartbeat IPC: 3.11666 cumulative IPC: 3.11668 (Simulation time: 0 hr 13 min 57 sec) 
Heartbeat CPU 0 instructions: 30000003 cycles: 9625522 heartbeat IPC: 3.11678 cumulative IPC: 3.11671 (Simulation time: 0 hr 20 min 36 sec) 
Heartbeat CPU 0 instructions: 40000001 cycles: 12833809 heartbeat IPC: 3.11693 cumulative IPC: 3.11677 (Simulation time: 0 hr 25 min 1 sec) 
Heartbeat CPU 0 instructions: 50000001 cycles: 16041980 heartbeat IPC: 3.11704 cumulative IPC: 3.11682 (Simulation time: 0 hr 29 min 50 sec) 

Warmup complete CPU 0 instructions: 50000001 cycles: 16041980 (Simulation time: 0 hr 29 min 50 sec) 

Heartbeat CPU 0 instructions: 60000002 cycles: 25611429 heartbeat IPC: 1.04499 cumulative IPC: 1.04499 (Simulation time: 0 hr 33 min 15 sec) 
Heartbeat CPU 0 instructions: 70000000 cycles: 35171386 heartbeat IPC: 1.04603 cumulative IPC: 1.04551 (Simulation time: 0 hr 37 min 2 sec) 
Heartbeat CPU 0 instructions: 80000001 cycles: 44720547 heartbeat IPC: 1.04721 cumulative IPC: 1.04608 (Simulation time: 0 hr 40 min 33 sec) 
Heartbeat CPU 0 instructions: 90000001 cycles: 54282735 heartbeat IPC: 1.04579 cumulative IPC: 1.046 (Simulation time: 0 hr 44 min 12 sec) 
Heartbeat CPU 0 instructions: 100000002 cycles: 63837452 heartbeat IPC: 1.0466 cumulative IPC: 1.04612 (Simulation time: 0 hr 47 min 1 sec) 
Heartbeat CPU 0 instructions: 110000000 cycles: 73400440 heartbeat IPC: 1.0457 cumulative IPC: 1.04605 (Simulation time: 0 hr 49 min 28 sec) 
Heartbeat CPU 0 instructions: 120000002 cycles: 82956392 heartbeat IPC: 1.04647 cumulative IPC: 1.04611 (Simulation time: 0 hr 51 min 42 sec) 
Heartbeat CPU 0 instructions: 130000001 cycles: 92508083 heartbeat IPC: 1.04693 cumulative IPC: 1.04622 (Simulation time: 0 hr 53 min 34 sec) 
Heartbeat CPU 0 instructions: 140000000 cycles: 102060725 heartbeat IPC: 1.04683 cumulative IPC: 1.04628 (Simulation time: 0 hr 55 min 22 sec) 
Heartbeat CPU 0 instructions: 150000000 cycles: 111614002 heartbeat IPC: 1.04676 cumulative IPC: 1.04633 (Simulation time: 0 hr 56 min 50 sec) 
Heartbeat CPU 0 instructions: 160000003 cycles: 121161759 heartbeat IPC: 1.04737 cumulative IPC: 1.04643 (Simulation time: 0 hr 58 min 2 sec) 
Heartbeat CPU 0 instructions: 170000003 cycles: 130715127 heartbeat IPC: 1.04675 cumulative IPC: 1.04645 (Simulation time: 0 hr 59 min 13 sec) 
Heartbeat CPU 0 instructions: 180000003 cycles: 140269557 heartbeat IPC: 1.04663 cumulative IPC: 1.04647 (Simulation time: 1 hr 0 min 23 sec) 
Heartbeat CPU 0 instructions: 190000002 cycles: 149824186 heartbeat IPC: 1.04661 cumulative IPC: 1.04648 (Simulation time: 1 hr 1 min 21 sec) 
Heartbeat CPU 0 instructions: 200000002 cycles: 159367321 heartbeat IPC: 1.04787 cumulative IPC: 1.04657 (Simulation time: 1 hr 2 min 8 sec) 
Heartbeat CPU 0 instructions: 210000001 cycles: 168917428 heartbeat IPC: 1.04711 cumulative IPC: 1.0466 (Simulation time: 1 hr 2 min 49 sec) 
Heartbeat CPU 0 instructions: 220000000 cycles: 178475169 heartbeat IPC: 1.04627 cumulative IPC: 1.04658 (Simulation time: 1 hr 3 min 31 sec) 
Heartbeat CPU 0 instructions: 230000002 cycles: 188033814 heartbeat IPC: 1.04617 cumulative IPC: 1.04656 (Simulation time: 1 hr 4 min 11 sec) 
Heartbeat CPU 0 instructions: 240000001 cycles: 197578351 heartbeat IPC: 1.04772 cumulative IPC: 1.04662 (Simulation time: 1 hr 4 min 51 sec) 
Heartbeat CPU 0 instructions: 250000000 cycles: 207137039 heartbeat IPC: 1.04617 cumulative IPC: 1.0466 (Simulation time: 1 hr 5 min 31 sec) 
Finished CPU 0 instructions: 200000003 cycles: 191095060 cumulative IPC: 1.0466 (Simulation time: 1 hr 5 min 31 sec) 

ChampSim completed all CPUs

Region of Interest Statistics

CPU 0 cumulative IPC: 1.0466 instructions: 200000003 cycles: 191095060
ITLB TOTAL     ACCESS:   26756259  HIT:   26756259  MISS:          0  HIT %:        100  MISS %:          0   MPKI: 0
ITLB LOAD TRANSLATION ACCESS:   26756259  HIT:   26756259  MISS:          0  HIT %:        100  MISS %:          0   MPKI: 0
ITLB PREFETCH  REQUESTED:          0  ISSUED:          0  USEFUL:          0  USELESS:          0
ITLB USEFUL LOAD PREFETCHES:          0 PREFETCH ISSUED TO LOWER LEVEL:          0  ACCURACY: -nan
ITLB TIMELY PREFETCHES:          0 LATE PREFETCHES: 0 DROPPED PREFETCHES: 0
ITLB PREFETCHES SAME FILL-ORIGIN LEVEL: 0 DIFFERENT FILL-ORIGIN LEVEL: 0
ITLB AVERAGE MISS LATENCY: -nan cycles
ITLB RQ	ACCESS:   33427777	FORWARD:          0	MERGED:    6671519	TO_CACHE:   26756258

DTLB TOTAL     ACCESS:   53991482  HIT:   53904017  MISS:      87465  HIT %:     99.838  MISS %:   0.161998   MPKI: 0.437325
DTLB LOAD TRANSLATION ACCESS:   53991482  HIT:   53904017  MISS:      87465  HIT %:     99.838  MISS %:   0.161998   MPKI: 0.437325
DTLB PREFETCH  REQUESTED:          0  ISSUED:          0  USEFUL:          0  USELESS:          0
DTLB USEFUL LOAD PREFETCHES:          0 PREFETCH ISSUED TO LOWER LEVEL:          0  ACCURACY: -nan
DTLB TIMELY PREFETCHES:          0 LATE PREFETCHES: 0 DROPPED PREFETCHES: 0
DTLB PREFETCHES SAME FILL-ORIGIN LEVEL: 0 DIFFERENT FILL-ORIGIN LEVEL: 0
DTLB AVERAGE MISS LATENCY: 341.752 cycles
DTLB RQ	ACCESS:   58238437	FORWARD:          0	MERGED:    4236446	TO_CACHE:   54001991

STLB TOTAL     ACCESS:   21361631  HIT:   21295875  MISS:      65756  HIT %:    99.6922  MISS %:   0.307823   MPKI: 0.32878
STLB LOAD TRANSLATION ACCESS:      87465  HIT:      21709  MISS:      65756  HIT %:    24.8202  MISS %:    75.1798   MPKI: 0.32878
STLB TRANSLATION FROM L1D PREFETCHER ACCESS:   21274166  HIT:   21274166  MISS:          0  HIT %:        100  MISS %:          0   MPKI: 0
STLB PREFETCH  REQUESTED:          0  ISSUED:          0  USEFUL:          0  USELESS:          0
STLB USEFUL LOAD PREFETCHES:          0 PREFETCH ISSUED TO LOWER LEVEL:          0  ACCURACY: -nan
STLB TIMELY PREFETCHES:          0 LATE PREFETCHES: 3298 DROPPED PREFETCHES: 811689
STLB PREFETCHES SAME FILL-ORIGIN LEVEL: 0 DIFFERENT FILL-ORIGIN LEVEL: 0
STLB AVERAGE MISS LATENCY: 441.212 cycles
STLB RQ	ACCESS:  102783572	FORWARD:          0	MERGED:   80599141	TO_CACHE:   22184431

STLB Hit, L1D data hit: 0
STLB Hit, L2C data hit: 0
STLB Hit, LLC data hit: 0
STLB Hit, LLC data miss: 0
STLB STLB hints to L2: 0
L1D TOTAL     ACCESS:  149723787  HIT:  146813076  MISS:    2910711  HIT %:    98.0559  MISS %:    1.94405   MPKI: 14.5536
L1D LOAD      ACCESS:   51368341  HIT:   51217739  MISS:     150602  HIT %:    99.7068  MISS %:   0.293181   MPKI: 0.75301
L1D RFO       ACCESS:    6710080  HIT:    6689363  MISS:      20717  HIT %:    99.6913  MISS %:   0.308744   MPKI: 0.103585
L1D PREFETCH  ACCESS:   91645366  HIT:   88905974  MISS:    2739392  HIT %:    97.0109  MISS %:    2.98912   MPKI: 13.697
L1D PREFETCH  REQUESTED:  299284311  ISSUED:  205887488  USEFUL:    2474132  USELESS:     265261
L1D USEFUL LOAD PREFETCHES:    2474132 PREFETCH ISSUED TO LOWER LEVEL:   10359862  ACCURACY: 23.8819
L1D TIMELY PREFETCHES:    2474132 LATE PREFETCHES: 14052 DROPPED PREFETCHES: 2570117
L1D PREFETCHES SAME FILL-ORIGIN LEVEL: 2753446 DIFFERENT FILL-ORIGIN LEVEL: 7606416
L1D AVERAGE MISS LATENCY: 94.7912 cycles
L1D RQ	ACCESS:   76447338	FORWARD:          0	MERGED:   25009561	TO_CACHE:   51437746
L1D WQ	ACCESS:    6800691	FORWARD:         31	MERGED:          0	TO_CACHE:    6800691
L1D PQ	ACCESS:  103191381	FORWARD:          0	MERGED:     495274	TO_CACHE:  102696107

L1D UNIQUE REGIONS ACCESSED: 0
L1D REGIONS CONFLICTS: 0
L1D Cross Page Prefetch Requests: 7050062
L1D Same Page Prefetch Requests: 114223651
L1D ROI Sum of L1D PQ occupancy: 1705825140
L1D PREFETCHES PUSHED FROM L2C: 0
L1I TOTAL     ACCESS:   33427776  HIT:   33427776  MISS:          0  HIT %:        100  MISS %:          0   MPKI: 0
L1I LOAD      ACCESS:   33427776  HIT:   33427776  MISS:          0  HIT %:        100  MISS %:          0   MPKI: 0
L1I PREFETCH  REQUESTED:          0  ISSUED:          0  USEFUL:          0  USELESS:          0
L1I USEFUL LOAD PREFETCHES:          0 PREFETCH ISSUED TO LOWER LEVEL:          0  ACCURACY: -nan
L1I TIMELY PREFETCHES:          0 LATE PREFETCHES: 0 DROPPED PREFETCHES: 0
L1I PREFETCHES SAME FILL-ORIGIN LEVEL: 0 DIFFERENT FILL-ORIGIN LEVEL: 0
L1I AVERAGE MISS LATENCY: -nan cycles
L1I RQ	ACCESS:   53484039	FORWARD:          0	MERGED:   20056262	TO_CACHE:   33427777

BTB TOTAL     ACCESS:   10024821  HIT:   10024810  MISS:         11  HIT %:    99.9999  MISS %: 0.000109728   MPKI: 5.5e-05
BTB BRANCH_DIRECT_JUMP	ACCESS:        162  HIT:        161  MISS:          1
BTB BRANCH_INDIRECT	ACCESS:          0  HIT:          0  MISS:          0
BTB BRANCH_CONDITIONAL	ACCESS:   10024335  HIT:   10024327  MISS:          8
BTB BRANCH_DIRECT_CALL	ACCESS:        162  HIT:        161  MISS:          1
BTB BRANCH_INDIRECT_CALL	ACCESS:          0  HIT:          0  MISS:          0
BTB BRANCH_RETURN	ACCESS:        162  HIT:        161  MISS:          1
BTB BRANCH_OTHER ACCESS:          0  HIT:          0  MISS:          0

L2C TOTAL     ACCESS:   11138490  HIT:    8209151  MISS:    2929339  HIT %:    73.7008  MISS %:    26.2992   MPKI: 14.6467
L2C LOAD      ACCESS:     136515  HIT:      48309  MISS:      88206  HIT %:    35.3873  MISS %:    64.6127   MPKI: 0.44103
L2C DATA LOAD MPKI: 0.44103
L2C INSTRUCTION LOAD MPKI: 0
L2C RFO       ACCESS:      20717  HIT:       2830  MISS:      17887  HIT %:    13.6603  MISS %:    86.3397   MPKI: 0.089435
L2C PREFETCH  ACCESS:    9961129  HIT:    7204064  MISS:    2757065  HIT %:    72.3218  MISS %:    27.6782   MPKI: 13.7853
L2C DATA PREFETCH MPKI: 13.7853
L2C INSTRUCTION PREFETCH MPKI: 0
L2C WRITEBACK ACCESS:      77335  HIT:      60686  MISS:      16649  HIT %:    78.4716  MISS %:    21.5284   MPKI: 0.083245
L2C LOAD TRANSLATION ACCESS:      98697  HIT:      54233  MISS:      44464  HIT %:     54.949  MISS %:     45.051   MPKI: 0.22232
L2C TRANSLATION FROM L1D PREFETCHER ACCESS:     844097  HIT:     839029  MISS:       5068  HIT %:    99.3996  MISS %:   0.600405   MPKI: 0.02534
L2C PREFETCH  REQUESTED:          0  ISSUED:          0  USEFUL:      26364  USELESS:    2735843
L2C USEFUL LOAD PREFETCHES:      26364 PREFETCH ISSUED TO LOWER LEVEL:    2757229  ACCURACY: 0.956177
L2C TIMELY PREFETCHES:      26364 LATE PREFETCHES: 163 DROPPED PREFETCHES: 0
L2C PREFETCHES SAME FILL-ORIGIN LEVEL: 941311 DIFFERENT FILL-ORIGIN LEVEL: 0
L2C AVERAGE MISS LATENCY: 116.037 cycles
L2C RQ	ACCESS:    1100061	FORWARD:          0	MERGED:          0	TO_CACHE:    1100026
L2C WQ	ACCESS:      77335	FORWARD:        175	MERGED:          0	TO_CACHE:      77335
L2C PQ	ACCESS:   10359862	FORWARD:          0	MERGED:          5	TO_CACHE:   10359717

L2C Instructions Evicting Data 0
L2C Translations Evicting Data 48704
L2C Data Evicting Data 2814728
L2C Instructions Evicting Instructions 0
L2C Translations Evicting Instructions 0
L2C Data Evicting Instructions 0
L2C Instructions Evicting Translations 0
L2C Translations Evicting Translations 828
L2C Data Evicting Translations 48430
L2C Dense regions hint from L2: 0
PSCL5 TOTAL     ACCESS:     880743  HIT:     880743  MISS:          0  HIT %:        100  MISS %:          0   MPKI: 0
PSCL5 LOAD TRANSLATION ACCESS:      65756  HIT:      65756  MISS:          0  HIT %:        100  MISS %:          0   MPKI: 0
PSCL5 TRANSLATION FROM L1D PREFETCHER ACCESS:     814987  HIT:     814987  MISS:          0  HIT %:        100  MISS %:          0   MPKI: 0
PSCL5 PREFETCH  REQUESTED:          0  ISSUED:          0  USEFUL:          0  USELESS:          0
PSCL5 USEFUL LOAD PREFETCHES:          0 PREFETCH ISSUED TO LOWER LEVEL:          0  ACCURACY: -nan
PSCL5 TIMELY PREFETCHES:          0 LATE PREFETCHES: 0 DROPPED PREFETCHES: 0
PSCL5 PREFETCHES SAME FILL-ORIGIN LEVEL: 0 DIFFERENT FILL-ORIGIN LEVEL: 0

PSCL4 TOTAL     ACCESS:     880743  HIT:     880743  MISS:          0  HIT %:        100  MISS %:          0   MPKI: 0
PSCL4 LOAD TRANSLATION ACCESS:      65756  HIT:      65756  MISS:          0  HIT %:        100  MISS %:          0   MPKI: 0
PSCL4 TRANSLATION FROM L1D PREFETCHER ACCESS:     814987  HIT:     814987  MISS:          0  HIT %:        100  MISS %:          0   MPKI: 0
PSCL4 PREFETCH  REQUESTED:          0  ISSUED:          0  USEFUL:          0  USELESS:          0
PSCL4 USEFUL LOAD PREFETCHES:          0 PREFETCH ISSUED TO LOWER LEVEL:          0  ACCURACY: -nan
PSCL4 TIMELY PREFETCHES:          0 LATE PREFETCHES: 0 DROPPED PREFETCHES: 0
PSCL4 PREFETCHES SAME FILL-ORIGIN LEVEL: 0 DIFFERENT FILL-ORIGIN LEVEL: 0

PSCL3 TOTAL     ACCESS:     879795  HIT:     879718  MISS:         77  HIT %:    99.9912  MISS %: 0.00875204   MPKI: 0.000385
PSCL3 LOAD TRANSLATION ACCESS:      65754  HIT:      65677  MISS:         77  HIT %:    99.8829  MISS %:   0.117103   MPKI: 0.000385
PSCL3 TRANSLATION FROM L1D PREFETCHER ACCESS:     814041  HIT:     814041  MISS:          0  HIT %:        100  MISS %:          0   MPKI: 0
PSCL3 PREFETCH  REQUESTED:          0  ISSUED:          0  USEFUL:          0  USELESS:          0
PSCL3 USEFUL LOAD PREFETCHES:          0 PREFETCH ISSUED TO LOWER LEVEL:          0  ACCURACY: -nan
PSCL3 TIMELY PREFETCHES:          0 LATE PREFETCHES: 0 DROPPED PREFETCHES: 0
PSCL3 PREFETCHES SAME FILL-ORIGIN LEVEL: 0 DIFFERENT FILL-ORIGIN LEVEL: 0

PSCL2 TOTAL     ACCESS:     850947  HIT:     817824  MISS:      33123  HIT %:    96.1075  MISS %:    3.89249   MPKI: 0.165615
PSCL2 LOAD TRANSLATION ACCESS:      65756  HIT:      32633  MISS:      33123  HIT %:    49.6274  MISS %:    50.3726   MPKI: 0.165615
PSCL2 TRANSLATION FROM L1D PREFETCHER ACCESS:     785191  HIT:     785191  MISS:          0  HIT %:        100  MISS %:          0   MPKI: 0
PSCL2 PREFETCH  REQUESTED:          0  ISSUED:          0  USEFUL:          0  USELESS:          0
PSCL2 USEFUL LOAD PREFETCHES:          0 PREFETCH ISSUED TO LOWER LEVEL:          0  ACCURACY: -nan
PSCL2 TIMELY PREFETCHES:          0 LATE PREFETCHES: 0 DROPPED PREFETCHES: 0
PSCL2 PREFETCHES SAME FILL-ORIGIN LEVEL: 0 DIFFERENT FILL-ORIGIN LEVEL: 0

LLC TOTAL     ACCESS:    2935457  HIT:     455848  MISS:    2479609  HIT %:     15.529  MISS %:     84.471   MPKI: 12.398
LLC LOAD      ACCESS:      88045  HIT:       7270  MISS:      80775  HIT %:    8.25714  MISS %:    91.7429   MPKI: 0.403875
LLC RFO       ACCESS:      17885  HIT:        470  MISS:      17415  HIT %:     2.6279  MISS %:    97.3721   MPKI: 0.087075
LLC PREFETCH  ACCESS:    2757228  HIT:     407901  MISS:    2349327  HIT %:    14.7939  MISS %:    85.2061   MPKI: 11.7466
LLC WRITEBACK ACCESS:      22767  HIT:       9700  MISS:      13067  HIT %:    42.6055  MISS %:    57.3945   MPKI: 0.065335
LLC LOAD TRANSLATION ACCESS:      44464  HIT:      30315  MISS:      14149  HIT %:    68.1788  MISS %:    31.8212   MPKI: 0.070745
LLC TRANSLATION FROM L1D PREFETCHER ACCESS:       5068  HIT:        192  MISS:       4876  HIT %:    3.78848  MISS %:    96.2115   MPKI: 0.02438
LLC PREFETCH  REQUESTED:          0  ISSUED:          0  USEFUL:       4077  USELESS:    2350188
LLC USEFUL LOAD PREFETCHES:       4077 PREFETCH ISSUED TO LOWER LEVEL:    2349328  ACCURACY: 0.173539
LLC TIMELY PREFETCHES:       4077 LATE PREFETCHES: 0 DROPPED PREFETCHES: 0
LLC PREFETCHES SAME FILL-ORIGIN LEVEL: 0 DIFFERENT FILL-ORIGIN LEVEL: 0
LLC AVERAGE MISS LATENCY: 99.3219 cycles
LLC RQ	ACCESS:     155462	FORWARD:          0	MERGED:          0	TO_CACHE:     155462
LLC WQ	ACCESS:      22767	FORWARD:          0	MERGED:          0	TO_CACHE:      22767
LLC PQ	ACCESS:    2757229	FORWARD:          0	MERGED:          0	TO_CACHE:    2757229

LLC Dense regions hint to LLC: 0

RAW hits: 402
Loads Generated: 76447740
Loads sent to L1D: 76447338
Stores Generated: 6800691
Stores sent to L1D: 6800691
Major fault: 0 Minor fault: 82777
Allocated PAGES: 82777

DRAM Statistics
 CHANNEL 0
 RQ ROW_BUFFER_HIT:    1996333  ROW_BUFFER_MISS:     470209
 DBUS_CONGESTED:       1233
 WQ ROW_BUFFER_HIT:       6118  ROW_BUFFER_MISS:      15148  FULL:          0

 AVG_CONGESTED_CYCLE: 4
 All warmup complete: 2
Channel 0 Bank busy for read cycles: 0
Channel 0 Bank busy for write cycles: 0
Channel 0
Rank 0
0banks busy for read cycles: 100860856
0banks busy for write cycles: 16228
1banks busy for read cycles: 49901725
1banks busy for write cycles: 3234997
2banks busy for read cycles: 18595464
2banks busy for write cycles: 566388
3banks busy for read cycles: 6785639
3banks busy for write cycles: 149595
4banks busy for read cycles: 3479668
4banks busy for write cycles: 44338
5banks busy for read cycles: 2156363
5banks busy for write cycles: 13874
6banks busy for read cycles: 1413003
6banks busy for write cycles: 4209
7banks busy for read cycles: 1237840
7banks busy for write cycles: 1289
8banks busy for read cycles: 2633585
8banks busy for write cycles: 0

CPU 0 Branch Prediction Accuracy: 99.9995% MPKI: 0.000235 Average ROB Occupancy at Mispredict: 60.1064
Branch types
NOT_BRANCH: 189955093 94.9775%
BRANCH_DIRECT_JUMP: 162 8.1e-05%
BRANCH_INDIRECT: 0 0%
BRANCH_CONDITIONAL: 10044111 5.02206%
BRANCH_DIRECT_CALL: 162 8.1e-05%
BRANCH_INDIRECT_CALL: 0 0%
BRANCH_RETURN: 162 8.1e-05%
BRANCH_OTHER: 0 0%

DRAM PAGES: 1048576
Allocated PAGES: 82777
