 (TOTAL 523355 bits 511 Kbits) 
*** ChampSim Multicore Out-of-Order Simulator ***

Warmup Instructions: 50000000
Simulation Instructions: 200000000
Number of CPUs: 1
LLC sets: 2048
LLC ways: 16
Off-chip DRAM Size: 4096 MB Channels: 1 Width: 64-bit Data Rate: 6400 MT/s
argv[0]: ./ChampSim/Berti/bin/tagescl-no-vberti-no-no-no-no-no-lru-lru-lru-srrip-drrip-lru-lru-lru-1core-no
argv[1]: -warmup_instructions
argv[2]: 50000000
argv[3]: -simulation_instructions
argv[4]: 200000000
argv[5]: -traces
argv[6]: traces/spec2k17_ten/607.cactuBSSN_s-2421B.champsimtrace.xz
CPU 0 runs traces/spec2k17_ten/607.cactuBSSN_s-2421B.champsimtrace.xz
.xz
CPU 0 Tage branch predictor
BTB has LRU replacement policy
ITLB has LRU replacement policy
DTLB has LRU replacement policy
STLB has LRU replacement policy
L1I has LRU replacement policy
History Sets: 8
History Ways: 16
BERTI Size: 16
BERTI Stride Size: 16
L1D has LRU replacement policy
Initialize SRRIP state for L2C
Initialize DRRIP state for LLC
Heartbeat CPU 0 instructions: 10000002 cycles: 3587638 heartbeat IPC: 2.78735 cumulative IPC: 2.78735 (Simulation time: 0 hr 10 min 12 sec) 
Heartbeat CPU 0 instructions: 20000001 cycles: 7171617 heartbeat IPC: 2.79019 cumulative IPC: 2.78877 (Simulation time: 0 hr 18 min 37 sec) 
Heartbeat CPU 0 instructions: 30000002 cycles: 10758951 heartbeat IPC: 2.78759 cumulative IPC: 2.78838 (Simulation time: 0 hr 25 min 38 sec) 
Heartbeat CPU 0 instructions: 40000003 cycles: 14345624 heartbeat IPC: 2.7881 cumulative IPC: 2.78831 (Simulation time: 0 hr 35 min 42 sec) 
Heartbeat CPU 0 instructions: 50000003 cycles: 17931159 heartbeat IPC: 2.78898 cumulative IPC: 2.78844 (Simulation time: 0 hr 45 min 16 sec) 

Warmup complete CPU 0 instructions: 50000003 cycles: 17931159 (Simulation time: 0 hr 45 min 16 sec) 

Heartbeat CPU 0 instructions: 60000003 cycles: 30721614 heartbeat IPC: 0.781833 cumulative IPC: 0.781833 (Simulation time: 0 hr 54 min 12 sec) 
Heartbeat CPU 0 instructions: 70000000 cycles: 43246044 heartbeat IPC: 0.798439 cumulative IPC: 0.790049 (Simulation time: 1 hr 1 min 16 sec) 
Heartbeat CPU 0 instructions: 80000001 cycles: 55804450 heartbeat IPC: 0.796279 cumulative IPC: 0.792115 (Simulation time: 1 hr 7 min 26 sec) 
Heartbeat CPU 0 instructions: 90000000 cycles: 68352698 heartbeat IPC: 0.796924 cumulative IPC: 0.793312 (Simulation time: 1 hr 16 min 19 sec) 
Heartbeat CPU 0 instructions: 100000000 cycles: 80873377 heartbeat IPC: 0.798679 cumulative IPC: 0.794379 (Simulation time: 1 hr 25 min 10 sec) 
Heartbeat CPU 0 instructions: 110000000 cycles: 93387102 heartbeat IPC: 0.799123 cumulative IPC: 0.795166 (Simulation time: 1 hr 33 min 54 sec) 
Heartbeat CPU 0 instructions: 120000000 cycles: 105875013 heartbeat IPC: 0.800774 cumulative IPC: 0.795962 (Simulation time: 1 hr 42 min 22 sec) 
Heartbeat CPU 0 instructions: 130000002 cycles: 118432718 heartbeat IPC: 0.796324 cumulative IPC: 0.796008 (Simulation time: 1 hr 50 min 2 sec) 
Heartbeat CPU 0 instructions: 140000002 cycles: 130998034 heartbeat IPC: 0.795842 cumulative IPC: 0.795989 (Simulation time: 1 hr 58 min 13 sec) 
Heartbeat CPU 0 instructions: 150000001 cycles: 143622157 heartbeat IPC: 0.792134 cumulative IPC: 0.795602 (Simulation time: 2 hr 6 min 43 sec) 
Heartbeat CPU 0 instructions: 160000002 cycles: 156117771 heartbeat IPC: 0.800281 cumulative IPC: 0.796025 (Simulation time: 2 hr 14 min 40 sec) 
Heartbeat CPU 0 instructions: 170000002 cycles: 168647873 heartbeat IPC: 0.798078 cumulative IPC: 0.796196 (Simulation time: 2 hr 23 min 24 sec) 
Heartbeat CPU 0 instructions: 180000001 cycles: 181119614 heartbeat IPC: 0.801813 cumulative IPC: 0.796625 (Simulation time: 2 hr 31 min 56 sec) 
Heartbeat CPU 0 instructions: 190000000 cycles: 193641520 heartbeat IPC: 0.7986 cumulative IPC: 0.796766 (Simulation time: 2 hr 39 min 11 sec) 
Heartbeat CPU 0 instructions: 200000000 cycles: 206107819 heartbeat IPC: 0.802163 cumulative IPC: 0.797123 (Simulation time: 2 hr 47 min 10 sec) 
Heartbeat CPU 0 instructions: 210000003 cycles: 218566265 heartbeat IPC: 0.802669 cumulative IPC: 0.797468 (Simulation time: 2 hr 55 min 48 sec) 
Heartbeat CPU 0 instructions: 220000000 cycles: 231118564 heartbeat IPC: 0.796667 cumulative IPC: 0.79742 (Simulation time: 3 hr 4 min 37 sec) 
Heartbeat CPU 0 instructions: 230000003 cycles: 243594291 heartbeat IPC: 0.801557 cumulative IPC: 0.797649 (Simulation time: 3 hr 11 min 16 sec) 
Heartbeat CPU 0 instructions: 240000000 cycles: 256197274 heartbeat IPC: 0.793463 cumulative IPC: 0.797428 (Simulation time: 3 hr 20 min 42 sec) 
Heartbeat CPU 0 instructions: 250000002 cycles: 268679353 heartbeat IPC: 0.801149 cumulative IPC: 0.797613 (Simulation time: 3 hr 29 min 53 sec) 
Finished CPU 0 instructions: 200000003 cycles: 250748195 cumulative IPC: 0.797613 (Simulation time: 3 hr 29 min 53 sec) 

ChampSim completed all CPUs

Region of Interest Statistics

CPU 0 cumulative IPC: 0.797613 instructions: 200000003 cycles: 250748195
ITLB TOTAL     ACCESS:   26749561  HIT:   26749507  MISS:         54  HIT %:    99.9998  MISS %: 0.000201872   MPKI: 0.00027
ITLB LOAD TRANSLATION ACCESS:   26749561  HIT:   26749507  MISS:         54  HIT %:    99.9998  MISS %: 0.000201872   MPKI: 0.00027
ITLB PREFETCH  REQUESTED:          0  ISSUED:          0  USEFUL:          0  USELESS:          0
ITLB USEFUL LOAD PREFETCHES:          0 PREFETCH ISSUED TO LOWER LEVEL:          0  ACCURACY: -nan
ITLB TIMELY PREFETCHES:          0 LATE PREFETCHES: 0 DROPPED PREFETCHES: 0
ITLB PREFETCHES SAME FILL-ORIGIN LEVEL: 0 DIFFERENT FILL-ORIGIN LEVEL: 0
ITLB AVERAGE MISS LATENCY: 331.519 cycles
ITLB RQ	ACCESS:   35011487	FORWARD:          0	MERGED:    8261917	TO_CACHE:   26749570

DTLB TOTAL     ACCESS:   41818407  HIT:   26812035  MISS:   15006372  HIT %:    64.1154  MISS %:    35.8846   MPKI: 75.0319
DTLB LOAD TRANSLATION ACCESS:   41818407  HIT:   26812035  MISS:   15006372  HIT %:    64.1154  MISS %:    35.8846   MPKI: 75.0319
DTLB PREFETCH  REQUESTED:          0  ISSUED:          0  USEFUL:          0  USELESS:          0
DTLB USEFUL LOAD PREFETCHES:          0 PREFETCH ISSUED TO LOWER LEVEL:          0  ACCURACY: -nan
DTLB TIMELY PREFETCHES:          0 LATE PREFETCHES: 0 DROPPED PREFETCHES: 0
DTLB PREFETCHES SAME FILL-ORIGIN LEVEL: 0 DIFFERENT FILL-ORIGIN LEVEL: 0
DTLB AVERAGE MISS LATENCY: 9.94925 cycles
DTLB RQ	ACCESS:   58238945	FORWARD:          0	MERGED:   15362627	TO_CACHE:   42876318

STLB TOTAL     ACCESS:   15037429  HIT:   15012880  MISS:      24549  HIT %:    99.8367  MISS %:   0.163253   MPKI: 0.122745
STLB LOAD TRANSLATION ACCESS:   15006427  HIT:   14981878  MISS:      24549  HIT %:    99.8364  MISS %:    0.16359   MPKI: 0.122745
STLB TRANSLATION FROM L1D PREFETCHER ACCESS:      31002  HIT:      31002  MISS:          0  HIT %:        100  MISS %:          0   MPKI: 0
STLB PREFETCH  REQUESTED:          0  ISSUED:          0  USEFUL:          0  USELESS:          0
STLB USEFUL LOAD PREFETCHES:          0 PREFETCH ISSUED TO LOWER LEVEL:          0  ACCURACY: -nan
STLB TIMELY PREFETCHES:          0 LATE PREFETCHES: 0 DROPPED PREFETCHES: 1231
STLB PREFETCHES SAME FILL-ORIGIN LEVEL: 0 DIFFERENT FILL-ORIGIN LEVEL: 0
STLB AVERAGE MISS LATENCY: 356.838 cycles
STLB RQ	ACCESS:   15045153	FORWARD:          0	MERGED:       6491	TO_CACHE:   15038662

STLB Hit, L1D data hit: 0
STLB Hit, L2C data hit: 0
STLB Hit, LLC data hit: 0
STLB Hit, LLC data miss: 0
STLB STLB hints to L2: 0
L1D TOTAL     ACCESS:   57607696  HIT:   34356556  MISS:   23251140  HIT %:    59.6388  MISS %:    40.3612   MPKI: 116.256
L1D LOAD      ACCESS:   34915686  HIT:   13278233  MISS:   21637453  HIT %:    38.0294  MISS %:    61.9706   MPKI: 108.187
L1D RFO       ACCESS:   22658116  HIT:   21049958  MISS:    1608158  HIT %:    92.9025  MISS %:    7.09749   MPKI: 8.04079
L1D PREFETCH  ACCESS:      33894  HIT:      28365  MISS:       5529  HIT %:    83.6874  MISS %:    16.3126   MPKI: 0.027645
L1D PREFETCH  REQUESTED:      77448  ISSUED:      77448  USEFUL:       1590  USELESS:       3940
L1D USEFUL LOAD PREFETCHES:       1590 PREFETCH ISSUED TO LOWER LEVEL:       8161  ACCURACY: 19.4829
L1D TIMELY PREFETCHES:       1590 LATE PREFETCHES: 893 DROPPED PREFETCHES: 1424
L1D PREFETCHES SAME FILL-ORIGIN LEVEL: 6422 DIFFERENT FILL-ORIGIN LEVEL: 1739
L1D AVERAGE MISS LATENCY: 37.2051 cycles
L1D RQ	ACCESS:   57207281	FORWARD:          0	MERGED:   21736675	TO_CACHE:   35455159
L1D WQ	ACCESS:   22784837	FORWARD:      15447	MERGED:       1051	TO_CACHE:   22783786
L1D PQ	ACCESS:      38724	FORWARD:          0	MERGED:          0	TO_CACHE:      38724

L1D UNIQUE REGIONS ACCESSED: 0
L1D REGIONS CONFLICTS: 0
L1D Cross Page Prefetch Requests: 143601
L1D Same Page Prefetch Requests: 18741
L1D ROI Sum of L1D PQ occupancy: 568515
L1D PREFETCHES PUSHED FROM L2C: 0
L1I TOTAL     ACCESS:   34986359  HIT:   34936702  MISS:      49657  HIT %:    99.8581  MISS %:   0.141932   MPKI: 0.248285
L1I LOAD      ACCESS:   34986359  HIT:   34936702  MISS:      49657  HIT %:    99.8581  MISS %:   0.141932   MPKI: 0.248285
L1I PREFETCH  REQUESTED:          0  ISSUED:          0  USEFUL:          0  USELESS:          0
L1I USEFUL LOAD PREFETCHES:          0 PREFETCH ISSUED TO LOWER LEVEL:          0  ACCURACY: -nan
L1I TIMELY PREFETCHES:          0 LATE PREFETCHES: 0 DROPPED PREFETCHES: 0
L1I PREFETCHES SAME FILL-ORIGIN LEVEL: 0 DIFFERENT FILL-ORIGIN LEVEL: 0
L1I AVERAGE MISS LATENCY: 17.1124 cycles
L1I RQ	ACCESS:   52035388	FORWARD:          0	MERGED:   17023901	TO_CACHE:   35011487

BTB TOTAL     ACCESS:     207305  HIT:     204093  MISS:       3212  HIT %:    98.4506  MISS %:    1.54941   MPKI: 0.01606
BTB BRANCH_DIRECT_JUMP	ACCESS:      61458  HIT:      61423  MISS:         35
BTB BRANCH_INDIRECT	ACCESS:      58898  HIT:      58820  MISS:         78
BTB BRANCH_CONDITIONAL	ACCESS:      74915  HIT:      74516  MISS:        399
BTB BRANCH_DIRECT_CALL	ACCESS:       6013  HIT:       5388  MISS:        625
BTB BRANCH_INDIRECT_CALL	ACCESS:          3  HIT:          0  MISS:          3
BTB BRANCH_RETURN	ACCESS:       6018  HIT:       3946  MISS:       2072
BTB BRANCH_OTHER ACCESS:          0  HIT:          0  MISS:          0

L2C TOTAL     ACCESS:   24718589  HIT:   22489744  MISS:    2228845  HIT %:    90.9831  MISS %:    9.01688   MPKI: 11.1442
L2C LOAD      ACCESS:   21269617  HIT:   19097182  MISS:    2172435  HIT %:    89.7862  MISS %:    10.2138   MPKI: 10.8622
L2C DATA LOAD MPKI: 10.8579
L2C INSTRUCTION LOAD MPKI: 0.004235
L2C RFO       ACCESS:    1605529  HIT:    1583679  MISS:      21850  HIT %:    98.6391  MISS %:    1.36092   MPKI: 0.10925
L2C PREFETCH  ACCESS:       8151  HIT:       7868  MISS:        283  HIT %:     96.528  MISS %:    3.47197   MPKI: 0.001415
L2C DATA PREFETCH MPKI: 0.001415
L2C INSTRUCTION PREFETCH MPKI: 0
L2C WRITEBACK ACCESS:    1793781  HIT:    1793681  MISS:        100  HIT %:    99.9944  MISS %: 0.00557482   MPKI: 0.0005
L2C LOAD TRANSLATION ACCESS:      39283  HIT:       5114  MISS:      34169  HIT %:    13.0184  MISS %:    86.9816   MPKI: 0.170845
L2C TRANSLATION FROM L1D PREFETCHER ACCESS:       2228  HIT:       2220  MISS:          8  HIT %:    99.6409  MISS %:   0.359066   MPKI: 4e-05
L2C PREFETCH  REQUESTED:          0  ISSUED:          0  USEFUL:        149  USELESS:        151
L2C USEFUL LOAD PREFETCHES:        149 PREFETCH ISSUED TO LOWER LEVEL:        283  ACCURACY: 52.6502
L2C TIMELY PREFETCHES:        149 LATE PREFETCHES: 0 DROPPED PREFETCHES: 0
L2C PREFETCHES SAME FILL-ORIGIN LEVEL: 199 DIFFERENT FILL-ORIGIN LEVEL: 0
L2C AVERAGE MISS LATENCY: 230.932 cycles
L2C RQ	ACCESS:   23335888	FORWARD:          0	MERGED:          0	TO_CACHE:   22916659
L2C WQ	ACCESS:    1793781	FORWARD:     419230	MERGED:          0	TO_CACHE:    1793781
L2C PQ	ACCESS:       8161	FORWARD:          0	MERGED:          0	TO_CACHE:       8160

L2C Instructions Evicting Data 786
L2C Translations Evicting Data 33542
L2C Data Evicting Data 2159242
L2C Instructions Evicting Instructions 40
L2C Translations Evicting Instructions 27
L2C Data Evicting Instructions 924
L2C Instructions Evicting Translations 21
L2C Translations Evicting Translations 608
L2C Data Evicting Translations 33555
L2C Dense regions hint from L2: 0
PSCL5 TOTAL     ACCESS:      25780  HIT:      25780  MISS:          0  HIT %:        100  MISS %:          0   MPKI: 0
PSCL5 LOAD TRANSLATION ACCESS:      24549  HIT:      24549  MISS:          0  HIT %:        100  MISS %:          0   MPKI: 0
PSCL5 TRANSLATION FROM L1D PREFETCHER ACCESS:       1231  HIT:       1231  MISS:          0  HIT %:        100  MISS %:          0   MPKI: 0
PSCL5 PREFETCH  REQUESTED:          0  ISSUED:          0  USEFUL:          0  USELESS:          0
PSCL5 USEFUL LOAD PREFETCHES:          0 PREFETCH ISSUED TO LOWER LEVEL:          0  ACCURACY: -nan
PSCL5 TIMELY PREFETCHES:          0 LATE PREFETCHES: 0 DROPPED PREFETCHES: 0
PSCL5 PREFETCHES SAME FILL-ORIGIN LEVEL: 0 DIFFERENT FILL-ORIGIN LEVEL: 0

PSCL4 TOTAL     ACCESS:      25780  HIT:      25780  MISS:          0  HIT %:        100  MISS %:          0   MPKI: 0
PSCL4 LOAD TRANSLATION ACCESS:      24549  HIT:      24549  MISS:          0  HIT %:        100  MISS %:          0   MPKI: 0
PSCL4 TRANSLATION FROM L1D PREFETCHER ACCESS:       1231  HIT:       1231  MISS:          0  HIT %:        100  MISS %:          0   MPKI: 0
PSCL4 PREFETCH  REQUESTED:          0  ISSUED:          0  USEFUL:          0  USELESS:          0
PSCL4 USEFUL LOAD PREFETCHES:          0 PREFETCH ISSUED TO LOWER LEVEL:          0  ACCURACY: -nan
PSCL4 TIMELY PREFETCHES:          0 LATE PREFETCHES: 0 DROPPED PREFETCHES: 0
PSCL4 PREFETCHES SAME FILL-ORIGIN LEVEL: 0 DIFFERENT FILL-ORIGIN LEVEL: 0

PSCL3 TOTAL     ACCESS:      25615  HIT:      25611  MISS:          4  HIT %:    99.9844  MISS %:  0.0156159   MPKI: 2e-05
PSCL3 LOAD TRANSLATION ACCESS:      24549  HIT:      24545  MISS:          4  HIT %:    99.9837  MISS %:  0.0162939   MPKI: 2e-05
PSCL3 TRANSLATION FROM L1D PREFETCHER ACCESS:       1066  HIT:       1066  MISS:          0  HIT %:        100  MISS %:          0   MPKI: 0
PSCL3 PREFETCH  REQUESTED:          0  ISSUED:          0  USEFUL:          0  USELESS:          0
PSCL3 USEFUL LOAD PREFETCHES:          0 PREFETCH ISSUED TO LOWER LEVEL:          0  ACCURACY: -nan
PSCL3 TIMELY PREFETCHES:          0 LATE PREFETCHES: 0 DROPPED PREFETCHES: 0
PSCL3 PREFETCHES SAME FILL-ORIGIN LEVEL: 0 DIFFERENT FILL-ORIGIN LEVEL: 0

PSCL2 TOTAL     ACCESS:      24948  HIT:      10145  MISS:      14803  HIT %:    40.6646  MISS %:    59.3354   MPKI: 0.074015
PSCL2 LOAD TRANSLATION ACCESS:      24549  HIT:       9746  MISS:      14803  HIT %:    39.7002  MISS %:    60.2998   MPKI: 0.074015
PSCL2 TRANSLATION FROM L1D PREFETCHER ACCESS:        399  HIT:        399  MISS:          0  HIT %:        100  MISS %:          0   MPKI: 0
PSCL2 PREFETCH  REQUESTED:          0  ISSUED:          0  USEFUL:          0  USELESS:          0
PSCL2 USEFUL LOAD PREFETCHES:          0 PREFETCH ISSUED TO LOWER LEVEL:          0  ACCURACY: -nan
PSCL2 TIMELY PREFETCHES:          0 LATE PREFETCHES: 0 DROPPED PREFETCHES: 0
PSCL2 PREFETCHES SAME FILL-ORIGIN LEVEL: 0 DIFFERENT FILL-ORIGIN LEVEL: 0

LLC TOTAL     ACCESS:    2419655  HIT:     869615  MISS:    1550040  HIT %:    35.9396  MISS %:    64.0604   MPKI: 7.7502
LLC LOAD      ACCESS:    2172435  HIT:     630156  MISS:    1542279  HIT %:    29.0069  MISS %:    70.9931   MPKI: 7.71139
LLC RFO       ACCESS:      21842  HIT:      20700  MISS:       1142  HIT %:    94.7715  MISS %:    5.22846   MPKI: 0.00571
LLC PREFETCH  ACCESS:        283  HIT:         66  MISS:        217  HIT %:    23.3216  MISS %:    76.6784   MPKI: 0.001085
LLC WRITEBACK ACCESS:     190918  HIT:     188259  MISS:       2659  HIT %:    98.6073  MISS %:    1.39274   MPKI: 0.013295
LLC LOAD TRANSLATION ACCESS:      34169  HIT:      30430  MISS:       3739  HIT %:    89.0573  MISS %:    10.9427   MPKI: 0.018695
LLC TRANSLATION FROM L1D PREFETCHER ACCESS:          8  HIT:          4  MISS:          4  HIT %:         50  MISS %:         50   MPKI: 2e-05
LLC PREFETCH  REQUESTED:          0  ISSUED:          0  USEFUL:         56  USELESS:        333
LLC USEFUL LOAD PREFETCHES:         56 PREFETCH ISSUED TO LOWER LEVEL:        217  ACCURACY: 25.8065
LLC TIMELY PREFETCHES:         56 LATE PREFETCHES: 0 DROPPED PREFETCHES: 0
LLC PREFETCHES SAME FILL-ORIGIN LEVEL: 0 DIFFERENT FILL-ORIGIN LEVEL: 0
LLC AVERAGE MISS LATENCY: 288.082 cycles
LLC RQ	ACCESS:    2228463	FORWARD:          0	MERGED:          0	TO_CACHE:    2228455
LLC WQ	ACCESS:     190918	FORWARD:          8	MERGED:          0	TO_CACHE:     190918
LLC PQ	ACCESS:        283	FORWARD:          0	MERGED:          0	TO_CACHE:        283

LLC Dense regions hint to LLC: 0

RAW hits: 84488
Loads Generated: 57291774
Loads sent to L1D: 57207281
Stores Generated: 22785114
Stores sent to L1D: 22785114
Major fault: 0 Minor fault: 17275
Allocated PAGES: 17275

DRAM Statistics
 CHANNEL 0
 RQ ROW_BUFFER_HIT:     752908  ROW_BUFFER_MISS:     794474
 DBUS_CONGESTED:        262
 WQ ROW_BUFFER_HIT:      97055  ROW_BUFFER_MISS:      94749  FULL:          0

 AVG_CONGESTED_CYCLE: 5
 All warmup complete: 2
Channel 0 Bank busy for read cycles: 0
Channel 0 Bank busy for write cycles: 0
Channel 0
Rank 0
0banks busy for read cycles: 154052270
0banks busy for write cycles: 45260
1banks busy for read cycles: 32436007
1banks busy for write cycles: 10712455
2banks busy for read cycles: 5048290
2banks busy for write cycles: 2819671
3banks busy for read cycles: 35496053
3banks busy for write cycles: 6105867
4banks busy for read cycles: 1706078
4banks busy for write cycles: 1928628
5banks busy for read cycles: 180260
5banks busy for write cycles: 171764
6banks busy for read cycles: 9837
6banks busy for write cycles: 28390
7banks busy for read cycles: 1918
7banks busy for write cycles: 4618
8banks busy for read cycles: 0
8banks busy for write cycles: 830

CPU 0 Branch Prediction Accuracy: 99.5409% MPKI: 0.003355 Average ROB Occupancy at Mispredict: 26.6468
Branch types
NOT_BRANCH: 199721295 99.8606%
BRANCH_DIRECT_JUMP: 61458 0.030729%
BRANCH_INDIRECT: 58898 0.029449%
BRANCH_CONDITIONAL: 146148 0.073074%
BRANCH_DIRECT_CALL: 6013 0.0030065%
BRANCH_INDIRECT_CALL: 3 1.5e-06%
BRANCH_RETURN: 6018 0.003009%
BRANCH_OTHER: 0 0%

DRAM PAGES: 1048576
Allocated PAGES: 17275
