 (TOTAL 523355 bits 511 Kbits) 
*** ChampSim Multicore Out-of-Order Simulator ***

Warmup Instructions: 50000000
Simulation Instructions: 200000000
Number of CPUs: 1
LLC sets: 2048
LLC ways: 16
Off-chip DRAM Size: 4096 MB Channels: 1 Width: 64-bit Data Rate: 6400 MT/s
argv[0]: ./ChampSim/Berti/bin/tagescl-no-vberti-no-no-no-no-no-lru-lru-lru-srrip-drrip-lru-lru-lru-1core-no
argv[1]: -warmup_instructions
argv[2]: 50000000
argv[3]: -simulation_instructions
argv[4]: 200000000
argv[5]: -traces
argv[6]: traces/spec2k17_ten/607.cactuBSSN_s-4248B.champsimtrace.xz
CPU 0 runs traces/spec2k17_ten/607.cactuBSSN_s-4248B.champsimtrace.xz
.xz
CPU 0 Tage branch predictor
BTB has LRU replacement policy
ITLB has LRU replacement policy
DTLB has LRU replacement policy
STLB has LRU replacement policy
L1I has LRU replacement policy
History Sets: 8
History Ways: 16
BERTI Size: 16
BERTI Stride Size: 16
L1D has LRU replacement policy
Initialize SRRIP state for L2C
Initialize DRRIP state for LLC
Heartbeat CPU 0 instructions: 10000003 cycles: 2722102 heartbeat IPC: 3.67363 cumulative IPC: 3.67363 (Simulation time: 0 hr 9 min 15 sec) 
Heartbeat CPU 0 instructions: 20000001 cycles: 5444203 heartbeat IPC: 3.67363 cumulative IPC: 3.67363 (Simulation time: 0 hr 16 min 20 sec) 
Heartbeat CPU 0 instructions: 30000001 cycles: 8166264 heartbeat IPC: 3.67369 cumulative IPC: 3.67365 (Simulation time: 0 hr 24 min 31 sec) 
Heartbeat CPU 0 instructions: 40000003 cycles: 10888320 heartbeat IPC: 3.67369 cumulative IPC: 3.67366 (Simulation time: 0 hr 32 min 46 sec) 
Heartbeat CPU 0 instructions: 50000001 cycles: 13610445 heartbeat IPC: 3.6736 cumulative IPC: 3.67365 (Simulation time: 0 hr 40 min 5 sec) 

Warmup complete CPU 0 instructions: 50000001 cycles: 13610445 (Simulation time: 0 hr 40 min 5 sec) 

Heartbeat CPU 0 instructions: 60000002 cycles: 23588276 heartbeat IPC: 1.00222 cumulative IPC: 1.00222 (Simulation time: 0 hr 47 min 10 sec) 
Heartbeat CPU 0 instructions: 70000000 cycles: 33683259 heartbeat IPC: 0.990591 cumulative IPC: 0.996372 (Simulation time: 0 hr 55 min 28 sec) 
Heartbeat CPU 0 instructions: 80000000 cycles: 43777474 heartbeat IPC: 0.990666 cumulative IPC: 0.994463 (Simulation time: 1 hr 2 min 43 sec) 
Heartbeat CPU 0 instructions: 90000002 cycles: 53871524 heartbeat IPC: 0.990683 cumulative IPC: 0.993515 (Simulation time: 1 hr 10 min 23 sec) 
Heartbeat CPU 0 instructions: 100000001 cycles: 63965832 heartbeat IPC: 0.990657 cumulative IPC: 0.992942 (Simulation time: 1 hr 17 min 48 sec) 
Heartbeat CPU 0 instructions: 110000000 cycles: 74059877 heartbeat IPC: 0.990683 cumulative IPC: 0.992565 (Simulation time: 1 hr 24 min 51 sec) 
Heartbeat CPU 0 instructions: 120000003 cycles: 84154141 heartbeat IPC: 0.990662 cumulative IPC: 0.992293 (Simulation time: 1 hr 31 min 53 sec) 
Heartbeat CPU 0 instructions: 130000003 cycles: 94248483 heartbeat IPC: 0.990654 cumulative IPC: 0.992088 (Simulation time: 1 hr 38 min 6 sec) 
Heartbeat CPU 0 instructions: 140000000 cycles: 104342547 heartbeat IPC: 0.990681 cumulative IPC: 0.991931 (Simulation time: 1 hr 45 min 18 sec) 
Heartbeat CPU 0 instructions: 150000003 cycles: 114436708 heartbeat IPC: 0.990672 cumulative IPC: 0.991805 (Simulation time: 1 hr 51 min 49 sec) 
Heartbeat CPU 0 instructions: 160000002 cycles: 124531081 heartbeat IPC: 0.990651 cumulative IPC: 0.9917 (Simulation time: 1 hr 59 min 16 sec) 
Heartbeat CPU 0 instructions: 170000000 cycles: 134625140 heartbeat IPC: 0.990682 cumulative IPC: 0.991615 (Simulation time: 2 hr 6 min 11 sec) 
Heartbeat CPU 0 instructions: 180000000 cycles: 144719403 heartbeat IPC: 0.990662 cumulative IPC: 0.991542 (Simulation time: 2 hr 12 min 23 sec) 
Heartbeat CPU 0 instructions: 190000002 cycles: 154813554 heartbeat IPC: 0.990673 cumulative IPC: 0.99148 (Simulation time: 2 hr 19 min 15 sec) 
Heartbeat CPU 0 instructions: 200000000 cycles: 164907894 heartbeat IPC: 0.990654 cumulative IPC: 0.991425 (Simulation time: 2 hr 25 min 44 sec) 
Heartbeat CPU 0 instructions: 210000000 cycles: 175002100 heartbeat IPC: 0.990667 cumulative IPC: 0.991377 (Simulation time: 2 hr 32 min 35 sec) 
Heartbeat CPU 0 instructions: 220000000 cycles: 185096128 heartbeat IPC: 0.990685 cumulative IPC: 0.991336 (Simulation time: 2 hr 39 min 4 sec) 
Heartbeat CPU 0 instructions: 230000002 cycles: 195190463 heartbeat IPC: 0.990655 cumulative IPC: 0.991298 (Simulation time: 2 hr 45 min 29 sec) 
Heartbeat CPU 0 instructions: 240000001 cycles: 205284519 heartbeat IPC: 0.990682 cumulative IPC: 0.991266 (Simulation time: 2 hr 53 min 0 sec) 
Heartbeat CPU 0 instructions: 250000003 cycles: 215378761 heartbeat IPC: 0.990664 cumulative IPC: 0.991236 (Simulation time: 2 hr 59 min 46 sec) 
Finished CPU 0 instructions: 200000002 cycles: 201768316 cumulative IPC: 0.991236 (Simulation time: 2 hr 59 min 46 sec) 

ChampSim completed all CPUs

Region of Interest Statistics

CPU 0 cumulative IPC: 0.991236 instructions: 200000002 cycles: 201768316
ITLB TOTAL     ACCESS:   27846593  HIT:   27846556  MISS:         37  HIT %:    99.9999  MISS %: 0.000132871   MPKI: 0.000185
ITLB LOAD TRANSLATION ACCESS:   27846593  HIT:   27846556  MISS:         37  HIT %:    99.9999  MISS %: 0.000132871   MPKI: 0.000185
ITLB PREFETCH  REQUESTED:          0  ISSUED:          0  USEFUL:          0  USELESS:          0
ITLB USEFUL LOAD PREFETCHES:          0 PREFETCH ISSUED TO LOWER LEVEL:          0  ACCURACY: -nan
ITLB TIMELY PREFETCHES:          0 LATE PREFETCHES: 0 DROPPED PREFETCHES: 0
ITLB PREFETCHES SAME FILL-ORIGIN LEVEL: 0 DIFFERENT FILL-ORIGIN LEVEL: 0
ITLB AVERAGE MISS LATENCY: 230.054 cycles
ITLB RQ	ACCESS:   37186968	FORWARD:          0	MERGED:    9340371	TO_CACHE:   27846597

DTLB TOTAL     ACCESS:   25554437  HIT:   25551383  MISS:       3054  HIT %:     99.988  MISS %:   0.011951   MPKI: 0.01527
DTLB LOAD TRANSLATION ACCESS:   25554437  HIT:   25551383  MISS:       3054  HIT %:     99.988  MISS %:   0.011951   MPKI: 0.01527
DTLB PREFETCH  REQUESTED:          0  ISSUED:          0  USEFUL:          0  USELESS:          0
DTLB USEFUL LOAD PREFETCHES:          0 PREFETCH ISSUED TO LOWER LEVEL:          0  ACCURACY: -nan
DTLB TIMELY PREFETCHES:          0 LATE PREFETCHES: 0 DROPPED PREFETCHES: 0
DTLB PREFETCHES SAME FILL-ORIGIN LEVEL: 0 DIFFERENT FILL-ORIGIN LEVEL: 0
DTLB AVERAGE MISS LATENCY: 121.314 cycles
DTLB RQ	ACCESS:   36085840	FORWARD:          0	MERGED:   10531402	TO_CACHE:   25554438

STLB TOTAL     ACCESS:    1527066  HIT:    1523975  MISS:       3091  HIT %:    99.7976  MISS %:   0.202414   MPKI: 0.015455
STLB LOAD TRANSLATION ACCESS:       3091  HIT:          0  MISS:       3091  HIT %:          0  MISS %:        100   MPKI: 0.015455
STLB TRANSLATION FROM L1D PREFETCHER ACCESS:    1523975  HIT:    1523975  MISS:          0  HIT %:        100  MISS %:          0   MPKI: 0
STLB PREFETCH  REQUESTED:          0  ISSUED:          0  USEFUL:          0  USELESS:          0
STLB USEFUL LOAD PREFETCHES:          0 PREFETCH ISSUED TO LOWER LEVEL:          0  ACCURACY: -nan
STLB TIMELY PREFETCHES:          0 LATE PREFETCHES: 0 DROPPED PREFETCHES: 355556
STLB PREFETCHES SAME FILL-ORIGIN LEVEL: 0 DIFFERENT FILL-ORIGIN LEVEL: 0
STLB AVERAGE MISS LATENCY: 113.615 cycles
STLB RQ	ACCESS:   12457442	FORWARD:          0	MERGED:   10574820	TO_CACHE:    1882622

STLB Hit, L1D data hit: 0
STLB Hit, L2C data hit: 0
STLB Hit, LLC data hit: 0
STLB Hit, LLC data miss: 0
STLB STLB hints to L2: 0
L1D TOTAL     ACCESS:   46965282  HIT:   46771592  MISS:     193690  HIT %:    99.5876  MISS %:   0.412411   MPKI: 0.96845
L1D LOAD      ACCESS:   29872792  HIT:   29869610  MISS:       3182  HIT %:    99.9893  MISS %:  0.0106518   MPKI: 0.01591
L1D RFO       ACCESS:    6212970  HIT:    6212957  MISS:         13  HIT %:    99.9998  MISS %: 0.00020924   MPKI: 6.5e-05
L1D PREFETCH  ACCESS:   10879520  HIT:   10689025  MISS:     190495  HIT %:     98.249  MISS %:    1.75095   MPKI: 0.952475
L1D PREFETCH  REQUESTED:   24909161  ISSUED:   24909161  USEFUL:     190492  USELESS:         11
L1D USEFUL LOAD PREFETCHES:     190492 PREFETCH ISSUED TO LOWER LEVEL:     707897  ACCURACY: 26.9096
L1D TIMELY PREFETCHES:     190492 LATE PREFETCHES: 0 DROPPED PREFETCHES: 1042652
L1D PREFETCHES SAME FILL-ORIGIN LEVEL: 190495 DIFFERENT FILL-ORIGIN LEVEL: 517402
L1D AVERAGE MISS LATENCY: 94.2179 cycles
L1D RQ	ACCESS:   35789559	FORWARD:          0	MERGED:    5878338	TO_CACHE:   29872857
L1D WQ	ACCESS:    6213003	FORWARD:      38364	MERGED:         20	TO_CACHE:    6212983
L1D PQ	ACCESS:   12454810	FORWARD:          0	MERGED:        459	TO_CACHE:   12454351

L1D UNIQUE REGIONS ACCESSED: 0
L1D REGIONS CONFLICTS: 0
L1D Cross Page Prefetch Requests: 1294214
L1D Same Page Prefetch Requests: 14104196
L1D ROI Sum of L1D PQ occupancy: 203598578
L1D PREFETCHES PUSHED FROM L2C: 0
L1I TOTAL     ACCESS:   37186930  HIT:   37186692  MISS:        238  HIT %:    99.9994  MISS %: 0.00064001   MPKI: 0.00119
L1I LOAD      ACCESS:   37186930  HIT:   37186692  MISS:        238  HIT %:    99.9994  MISS %: 0.00064001   MPKI: 0.00119
L1I PREFETCH  REQUESTED:          0  ISSUED:          0  USEFUL:          0  USELESS:          0
L1I USEFUL LOAD PREFETCHES:          0 PREFETCH ISSUED TO LOWER LEVEL:          0  ACCURACY: -nan
L1I TIMELY PREFETCHES:          0 LATE PREFETCHES: 0 DROPPED PREFETCHES: 0
L1I PREFETCHES SAME FILL-ORIGIN LEVEL: 0 DIFFERENT FILL-ORIGIN LEVEL: 0
L1I AVERAGE MISS LATENCY: 182.903 cycles
L1I RQ	ACCESS:   48107063	FORWARD:          0	MERGED:   10920095	TO_CACHE:   37186968

BTB TOTAL     ACCESS:   17059568  HIT:   17059095  MISS:        473  HIT %:    99.9972  MISS %: 0.00277264   MPKI: 0.002365
BTB BRANCH_DIRECT_JUMP	ACCESS:    3105675  HIT:    3105639  MISS:         36
BTB BRANCH_INDIRECT	ACCESS:         15  HIT:          6  MISS:          9
BTB BRANCH_CONDITIONAL	ACCESS:   13953111  HIT:   13953004  MISS:        107
BTB BRANCH_DIRECT_CALL	ACCESS:        383  HIT:        257  MISS:        126
BTB BRANCH_INDIRECT_CALL	ACCESS:          0  HIT:          0  MISS:          0
BTB BRANCH_RETURN	ACCESS:        383  HIT:        189  MISS:        194
BTB BRANCH_OTHER ACCESS:          1  HIT:          0  MISS:          1

L2C TOTAL     ACCESS:    1068314  HIT:     873953  MISS:     194361  HIT %:    81.8068  MISS %:    18.1932   MPKI: 0.971805
L2C LOAD      ACCESS:       3420  HIT:         11  MISS:       3409  HIT %:   0.321637  MISS %:    99.6784   MPKI: 0.017045
L2C DATA LOAD MPKI: 0.015855
L2C INSTRUCTION LOAD MPKI: 0.00119
L2C RFO       ACCESS:         13  HIT:          2  MISS:         11  HIT %:    15.3846  MISS %:    84.6154   MPKI: 5.5e-05
L2C PREFETCH  ACCESS:     706174  HIT:     515663  MISS:     190511  HIT %:    73.0221  MISS %:    26.9779   MPKI: 0.952555
L2C DATA PREFETCH MPKI: 0.952555
L2C INSTRUCTION PREFETCH MPKI: 0
L2C WRITEBACK ACCESS:         60  HIT:         54  MISS:          6  HIT %:         90  MISS %:         10   MPKI: 3e-05
L2C LOAD TRANSLATION ACCESS:       3091  HIT:       3054  MISS:         37  HIT %:     98.803  MISS %:    1.19702   MPKI: 0.000185
L2C TRANSLATION FROM L1D PREFETCHER ACCESS:     355556  HIT:     355169  MISS:        387  HIT %:    99.8912  MISS %:   0.108844   MPKI: 0.001935
L2C PREFETCH  REQUESTED:          0  ISSUED:          0  USEFUL:        398  USELESS:     190496
L2C USEFUL LOAD PREFETCHES:        398 PREFETCH ISSUED TO LOWER LEVEL:     190515  ACCURACY: 0.208907
L2C TIMELY PREFETCHES:        398 LATE PREFETCHES: 4 DROPPED PREFETCHES: 0
L2C PREFETCHES SAME FILL-ORIGIN LEVEL: 43806 DIFFERENT FILL-ORIGIN LEVEL: 0
L2C AVERAGE MISS LATENCY: 102.549 cycles
L2C RQ	ACCESS:     362080	FORWARD:          0	MERGED:          0	TO_CACHE:     362080
L2C WQ	ACCESS:         60	FORWARD:          0	MERGED:          0	TO_CACHE:         60
L2C PQ	ACCESS:     707897	FORWARD:          0	MERGED:          0	TO_CACHE:     707897

L2C Instructions Evicting Data 238
L2C Translations Evicting Data 424
L2C Data Evicting Data 193028
L2C Instructions Evicting Instructions 0
L2C Translations Evicting Instructions 0
L2C Data Evicting Instructions 238
L2C Instructions Evicting Translations 0
L2C Translations Evicting Translations 0
L2C Data Evicting Translations 427
L2C Dense regions hint from L2: 0
PSCL5 TOTAL     ACCESS:     358647  HIT:     358647  MISS:          0  HIT %:        100  MISS %:          0   MPKI: 0
PSCL5 LOAD TRANSLATION ACCESS:       3091  HIT:       3091  MISS:          0  HIT %:        100  MISS %:          0   MPKI: 0
PSCL5 TRANSLATION FROM L1D PREFETCHER ACCESS:     355556  HIT:     355556  MISS:          0  HIT %:        100  MISS %:          0   MPKI: 0
PSCL5 PREFETCH  REQUESTED:          0  ISSUED:          0  USEFUL:          0  USELESS:          0
PSCL5 USEFUL LOAD PREFETCHES:          0 PREFETCH ISSUED TO LOWER LEVEL:          0  ACCURACY: -nan
PSCL5 TIMELY PREFETCHES:          0 LATE PREFETCHES: 0 DROPPED PREFETCHES: 0
PSCL5 PREFETCHES SAME FILL-ORIGIN LEVEL: 0 DIFFERENT FILL-ORIGIN LEVEL: 0

PSCL4 TOTAL     ACCESS:     358647  HIT:     358647  MISS:          0  HIT %:        100  MISS %:          0   MPKI: 0
PSCL4 LOAD TRANSLATION ACCESS:       3091  HIT:       3091  MISS:          0  HIT %:        100  MISS %:          0   MPKI: 0
PSCL4 TRANSLATION FROM L1D PREFETCHER ACCESS:     355556  HIT:     355556  MISS:          0  HIT %:        100  MISS %:          0   MPKI: 0
PSCL4 PREFETCH  REQUESTED:          0  ISSUED:          0  USEFUL:          0  USELESS:          0
PSCL4 USEFUL LOAD PREFETCHES:          0 PREFETCH ISSUED TO LOWER LEVEL:          0  ACCURACY: -nan
PSCL4 TIMELY PREFETCHES:          0 LATE PREFETCHES: 0 DROPPED PREFETCHES: 0
PSCL4 PREFETCHES SAME FILL-ORIGIN LEVEL: 0 DIFFERENT FILL-ORIGIN LEVEL: 0

PSCL3 TOTAL     ACCESS:     358647  HIT:     358647  MISS:          0  HIT %:        100  MISS %:          0   MPKI: 0
PSCL3 LOAD TRANSLATION ACCESS:       3091  HIT:       3091  MISS:          0  HIT %:        100  MISS %:          0   MPKI: 0
PSCL3 TRANSLATION FROM L1D PREFETCHER ACCESS:     355556  HIT:     355556  MISS:          0  HIT %:        100  MISS %:          0   MPKI: 0
PSCL3 PREFETCH  REQUESTED:          0  ISSUED:          0  USEFUL:          0  USELESS:          0
PSCL3 USEFUL LOAD PREFETCHES:          0 PREFETCH ISSUED TO LOWER LEVEL:          0  ACCURACY: -nan
PSCL3 TIMELY PREFETCHES:          0 LATE PREFETCHES: 0 DROPPED PREFETCHES: 0
PSCL3 PREFETCHES SAME FILL-ORIGIN LEVEL: 0 DIFFERENT FILL-ORIGIN LEVEL: 0

PSCL2 TOTAL     ACCESS:     357905  HIT:     357892  MISS:         13  HIT %:    99.9964  MISS %: 0.00363225   MPKI: 6.5e-05
PSCL2 LOAD TRANSLATION ACCESS:       3091  HIT:       3078  MISS:         13  HIT %:    99.5794  MISS %:   0.420576   MPKI: 6.5e-05
PSCL2 TRANSLATION FROM L1D PREFETCHER ACCESS:     354814  HIT:     354814  MISS:          0  HIT %:        100  MISS %:          0   MPKI: 0
PSCL2 PREFETCH  REQUESTED:          0  ISSUED:          0  USEFUL:          0  USELESS:          0
PSCL2 USEFUL LOAD PREFETCHES:          0 PREFETCH ISSUED TO LOWER LEVEL:          0  ACCURACY: -nan
PSCL2 TIMELY PREFETCHES:          0 LATE PREFETCHES: 0 DROPPED PREFETCHES: 0
PSCL2 PREFETCHES SAME FILL-ORIGIN LEVEL: 0 DIFFERENT FILL-ORIGIN LEVEL: 0

LLC TOTAL     ACCESS:     194413  HIT:         55  MISS:     194358  HIT %:  0.0282903  MISS %:    99.9717   MPKI: 0.97179
LLC LOAD      ACCESS:       3405  HIT:          0  MISS:       3405  HIT %:          0  MISS %:        100   MPKI: 0.017025
LLC RFO       ACCESS:         11  HIT:          0  MISS:         11  HIT %:          0  MISS %:        100   MPKI: 5.5e-05
LLC PREFETCH  ACCESS:     190515  HIT:          0  MISS:     190515  HIT %:          0  MISS %:        100   MPKI: 0.952575
LLC WRITEBACK ACCESS:         58  HIT:         50  MISS:          8  HIT %:    86.2069  MISS %:    13.7931   MPKI: 4e-05
LLC LOAD TRANSLATION ACCESS:         37  HIT:          0  MISS:         37  HIT %:          0  MISS %:        100   MPKI: 0.000185
LLC TRANSLATION FROM L1D PREFETCHER ACCESS:        387  HIT:          5  MISS:        382  HIT %:    1.29199  MISS %:     98.708   MPKI: 0.00191
LLC PREFETCH  REQUESTED:          0  ISSUED:          0  USEFUL:          2  USELESS:     190802
LLC USEFUL LOAD PREFETCHES:          2 PREFETCH ISSUED TO LOWER LEVEL:     190515  ACCURACY: 0.00104979
LLC TIMELY PREFETCHES:          2 LATE PREFETCHES: 0 DROPPED PREFETCHES: 0
LLC PREFETCHES SAME FILL-ORIGIN LEVEL: 0 DIFFERENT FILL-ORIGIN LEVEL: 0
LLC AVERAGE MISS LATENCY: 72.5478 cycles
LLC RQ	ACCESS:       3840	FORWARD:          0	MERGED:          0	TO_CACHE:       3840
LLC WQ	ACCESS:         58	FORWARD:          0	MERGED:          0	TO_CACHE:         58
LLC PQ	ACCESS:     190515	FORWARD:          0	MERGED:          0	TO_CACHE:     190515

LLC Dense regions hint to LLC: 0

RAW hits: 1512416
Loads Generated: 37301976
Loads sent to L1D: 35789559
Stores Generated: 6213002
Stores sent to L1D: 6213003
Major fault: 0 Minor fault: 3840
Allocated PAGES: 3840

DRAM Statistics
 CHANNEL 0
 RQ ROW_BUFFER_HIT:     191566  ROW_BUFFER_MISS:       2784
 DBUS_CONGESTED:          0
 WQ ROW_BUFFER_HIT:          0  ROW_BUFFER_MISS:         57  FULL:          0

 AVG_CONGESTED_CYCLE: -
 All warmup complete: 2
Channel 0 Bank busy for read cycles: 0
Channel 0 Bank busy for write cycles: 0
Channel 0
Rank 0
0banks busy for read cycles: 194376552
0banks busy for write cycles: 54
1banks busy for read cycles: 5787723
1banks busy for write cycles: 7840
2banks busy for read cycles: 1409933
2banks busy for write cycles: 133
3banks busy for read cycles: 6617
3banks busy for write cycles: 148
4banks busy for read cycles: 6295
4banks busy for write cycles: 0
5banks busy for read cycles: 6093
5banks busy for write cycles: 0
6banks busy for read cycles: 6282
6banks busy for write cycles: 0
7banks busy for read cycles: 10053
7banks busy for write cycles: 0
8banks busy for read cycles: 150594
8banks busy for write cycles: 0

CPU 0 Branch Prediction Accuracy: 99.9979% MPKI: 0.0023 Average ROB Occupancy at Mispredict: 31.4478
Branch types
NOT_BRANCH: 175188146 87.5941%
BRANCH_DIRECT_JUMP: 3105675 1.55284%
BRANCH_INDIRECT: 15 7.5e-06%
BRANCH_CONDITIONAL: 21705086 10.8525%
BRANCH_DIRECT_CALL: 383 0.0001915%
BRANCH_INDIRECT_CALL: 0 0%
BRANCH_RETURN: 383 0.0001915%
BRANCH_OTHER: 1 5e-07%

DRAM PAGES: 1048576
Allocated PAGES: 3840
