
*** ChampSim Multicore Out-of-Order Simulator ***

Warmup Instructions: 50000000
Simulation Instructions: 200000000
Number of CPUs: 1
LLC sets: 2048
LLC ways: 16
Off-chip DRAM Size: 4096 MB Channels: 1 Width: 64-bit Data Rate: 6400 MT/s
argv[0]: ./ChampSim/Berti/bin/hashed_perceptron-no-vberti-no-no-no-no-no-lru-lru-lru-srrip-drrip-lru-lru-lru-1core-no
argv[1]: -warmup_instructions
argv[2]: 50000000
argv[3]: -simulation_instructions
argv[4]: 200000000
argv[5]: -traces
argv[6]: traces/spec2k17_ten/621.wrf_s-575B.champsimtrace.xz
CPU 0 runs traces/spec2k17_ten/621.wrf_s-575B.champsimtrace.xz
.xz
BTB has LRU replacement policy
ITLB has LRU replacement policy
DTLB has LRU replacement policy
STLB has LRU replacement policy
L1I has LRU replacement policy
History Sets: 8
History Ways: 16
BERTI Size: 16
BERTI Stride Size: 16
L1D has LRU replacement policy
Initialize SRRIP state for L2C
Initialize DRRIP state for LLC
Heartbeat CPU 0 instructions: 10000000 cycles: 3626524 heartbeat IPC: 2.75746 cumulative IPC: 2.75746 (Simulation time: 0 hr 2 min 0 sec) 
Heartbeat CPU 0 instructions: 20000002 cycles: 7255590 heartbeat IPC: 2.75553 cumulative IPC: 2.7565 (Simulation time: 0 hr 3 min 21 sec) 
Heartbeat CPU 0 instructions: 30000000 cycles: 10888705 heartbeat IPC: 2.75246 cumulative IPC: 2.75515 (Simulation time: 0 hr 4 min 36 sec) 
Heartbeat CPU 0 instructions: 40000002 cycles: 14522709 heartbeat IPC: 2.75179 cumulative IPC: 2.75431 (Simulation time: 0 hr 5 min 53 sec) 
Heartbeat CPU 0 instructions: 50000002 cycles: 18156197 heartbeat IPC: 2.75218 cumulative IPC: 2.75388 (Simulation time: 0 hr 7 min 27 sec) 

Warmup complete CPU 0 instructions: 50000002 cycles: 18156197 (Simulation time: 0 hr 7 min 27 sec) 

Heartbeat CPU 0 instructions: 60000001 cycles: 35479608 heartbeat IPC: 0.577253 cumulative IPC: 0.577253 (Simulation time: 0 hr 14 min 3 sec) 
