
*** ChampSim Multicore Out-of-Order Simulator ***

Warmup Instructions: 50000000
Simulation Instructions: 200000000
Number of CPUs: 1
LLC sets: 2048
LLC ways: 16
Off-chip DRAM Size: 4096 MB Channels: 1 Width: 64-bit Data Rate: 6400 MT/s
argv[0]: ./ChampSim/Berti/bin/multiperspective_perceptron8kb-no-vberti-no-no-no-no-no-lru-lru-lru-srrip-drrip-lru-lru-lru-1core-no
argv[1]: -warmup_instructions
argv[2]: 50000000
argv[3]: -simulation_instructions
argv[4]: 200000000
argv[5]: -traces
argv[6]: traces/spec2k17_ten/620.omnetpp_s-141B.champsimtrace.xz
CPU 0 runs traces/spec2k17_ten/620.omnetpp_s-141B.champsimtrace.xz
.xz
CPU 0 Multiperspective perceptron branch predictor
BTB has LRU replacement policy
ITLB has LRU replacement policy
DTLB has LRU replacement policy
STLB has LRU replacement policy
L1I has LRU replacement policy
History Sets: 8
History Ways: 16
BERTI Size: 16
BERTI Stride Size: 16
L1D has LRU replacement policy
Initialize SRRIP state for L2C
Initialize DRRIP state for LLC
Heartbeat CPU 0 instructions: 10000001 cycles: 3913569 heartbeat IPC: 2.55521 cumulative IPC: 2.55521 (Simulation time: 0 hr 9 min 25 sec) 
Heartbeat CPU 0 instructions: 20000003 cycles: 7840258 heartbeat IPC: 2.54668 cumulative IPC: 2.55094 (Simulation time: 0 hr 12 min 58 sec) 
Heartbeat CPU 0 instructions: 30000000 cycles: 11771242 heartbeat IPC: 2.54389 cumulative IPC: 2.54858 (Simulation time: 0 hr 20 min 52 sec) 
Heartbeat CPU 0 instructions: 40000001 cycles: 15691007 heartbeat IPC: 2.55117 cumulative IPC: 2.54923 (Simulation time: 0 hr 29 min 11 sec) 
Heartbeat CPU 0 instructions: 50000003 cycles: 19624475 heartbeat IPC: 2.54229 cumulative IPC: 2.54784 (Simulation time: 0 hr 36 min 1 sec) 

Warmup complete CPU 0 instructions: 50000003 cycles: 19624475 (Simulation time: 0 hr 36 min 1 sec) 

Heartbeat CPU 0 instructions: 60000001 cycles: 63955710 heartbeat IPC: 0.225575 cumulative IPC: 0.225575 (Simulation time: 0 hr 49 min 16 sec) 
Heartbeat CPU 0 instructions: 70000000 cycles: 108690947 heartbeat IPC: 0.223537 cumulative IPC: 0.224551 (Simulation time: 1 hr 2 min 25 sec) 
Heartbeat CPU 0 instructions: 80000003 cycles: 153122913 heartbeat IPC: 0.225063 cumulative IPC: 0.224722 (Simulation time: 1 hr 15 min 24 sec) 
Heartbeat CPU 0 instructions: 90000003 cycles: 197705065 heartbeat IPC: 0.224305 cumulative IPC: 0.224617 (Simulation time: 1 hr 26 min 57 sec) 
Heartbeat CPU 0 instructions: 100000003 cycles: 241956234 heartbeat IPC: 0.225983 cumulative IPC: 0.224889 (Simulation time: 1 hr 37 min 53 sec) 
Heartbeat CPU 0 instructions: 110000000 cycles: 286415617 heartbeat IPC: 0.224924 cumulative IPC: 0.224895 (Simulation time: 1 hr 49 min 35 sec) 
Heartbeat CPU 0 instructions: 120000000 cycles: 330718096 heartbeat IPC: 0.225721 cumulative IPC: 0.225013 (Simulation time: 2 hr 0 min 43 sec) 
Heartbeat CPU 0 instructions: 130000000 cycles: 375070939 heartbeat IPC: 0.225465 cumulative IPC: 0.225069 (Simulation time: 2 hr 13 min 45 sec) 
Heartbeat CPU 0 instructions: 140000000 cycles: 419425376 heartbeat IPC: 0.225457 cumulative IPC: 0.225112 (Simulation time: 2 hr 27 min 58 sec) 
Heartbeat CPU 0 instructions: 150000003 cycles: 464169466 heartbeat IPC: 0.223493 cumulative IPC: 0.224949 (Simulation time: 2 hr 39 min 50 sec) 
Heartbeat CPU 0 instructions: 160000001 cycles: 508557157 heartbeat IPC: 0.225288 cumulative IPC: 0.22498 (Simulation time: 2 hr 52 min 27 sec) 
Heartbeat CPU 0 instructions: 170000000 cycles: 552707369 heartbeat IPC: 0.226499 cumulative IPC: 0.225106 (Simulation time: 3 hr 3 min 52 sec) 
Heartbeat CPU 0 instructions: 180000000 cycles: 596846971 heartbeat IPC: 0.226554 cumulative IPC: 0.225216 (Simulation time: 3 hr 13 min 27 sec) 
Heartbeat CPU 0 instructions: 190000000 cycles: 640966844 heartbeat IPC: 0.226655 cumulative IPC: 0.225319 (Simulation time: 3 hr 22 min 0 sec) 
Heartbeat CPU 0 instructions: 200000002 cycles: 685964809 heartbeat IPC: 0.222232 cumulative IPC: 0.22511 (Simulation time: 3 hr 28 min 22 sec) 
Heartbeat CPU 0 instructions: 210000000 cycles: 730604879 heartbeat IPC: 0.224014 cumulative IPC: 0.225041 (Simulation time: 3 hr 32 min 25 sec) 
Heartbeat CPU 0 instructions: 220000000 cycles: 775418724 heartbeat IPC: 0.223145 cumulative IPC: 0.224929 (Simulation time: 3 hr 37 min 41 sec) 
Heartbeat CPU 0 instructions: 230000001 cycles: 819875510 heartbeat IPC: 0.224938 cumulative IPC: 0.224929 (Simulation time: 3 hr 41 min 32 sec) 
Heartbeat CPU 0 instructions: 240000001 cycles: 864367959 heartbeat IPC: 0.224757 cumulative IPC: 0.22492 (Simulation time: 3 hr 44 min 20 sec) 
Heartbeat CPU 0 instructions: 250000000 cycles: 908196036 heartbeat IPC: 0.228164 cumulative IPC: 0.22508 (Simulation time: 3 hr 46 min 23 sec) 
Finished CPU 0 instructions: 200000001 cycles: 888571562 cumulative IPC: 0.22508 (Simulation time: 3 hr 46 min 23 sec) 

ChampSim completed all CPUs

Region of Interest Statistics

CPU 0 cumulative IPC: 0.22508 instructions: 200000001 cycles: 888571562
ITLB TOTAL     ACCESS:   33638592  HIT:   33348454  MISS:     290138  HIT %:    99.1375  MISS %:   0.862515   MPKI: 1.45069
ITLB LOAD TRANSLATION ACCESS:   33638592  HIT:   33348454  MISS:     290138  HIT %:    99.1375  MISS %:   0.862515   MPKI: 1.45069
ITLB PREFETCH  REQUESTED:          0  ISSUED:          0  USEFUL:          0  USELESS:          0
ITLB USEFUL LOAD PREFETCHES:          0 PREFETCH ISSUED TO LOWER LEVEL:          0  ACCURACY: -nan
ITLB TIMELY PREFETCHES:          0 LATE PREFETCHES: 0 DROPPED PREFETCHES: 0
ITLB PREFETCHES SAME FILL-ORIGIN LEVEL: 0 DIFFERENT FILL-ORIGIN LEVEL: 0
ITLB AVERAGE MISS LATENCY: 9.66642 cycles
ITLB RQ	ACCESS:   38957312	FORWARD:          0	MERGED:    5261389	TO_CACHE:   33695923

DTLB TOTAL     ACCESS:   77157424  HIT:   72994186  MISS:    4163238  HIT %:    94.6042  MISS %:    5.39577   MPKI: 20.8162
DTLB LOAD TRANSLATION ACCESS:   77157424  HIT:   72994186  MISS:    4163238  HIT %:    94.6042  MISS %:    5.39577   MPKI: 20.8162
DTLB PREFETCH  REQUESTED:          0  ISSUED:          0  USEFUL:          0  USELESS:          0
DTLB USEFUL LOAD PREFETCHES:          0 PREFETCH ISSUED TO LOWER LEVEL:          0  ACCURACY: -nan
DTLB TIMELY PREFETCHES:          0 LATE PREFETCHES: 0 DROPPED PREFETCHES: 0
DTLB PREFETCHES SAME FILL-ORIGIN LEVEL: 0 DIFFERENT FILL-ORIGIN LEVEL: 0
DTLB AVERAGE MISS LATENCY: 24.5165 cycles
DTLB RQ	ACCESS:   87407460	FORWARD:          0	MERGED:   10149524	TO_CACHE:   77257936

STLB TOTAL     ACCESS:    4499002  HIT:    3520740  MISS:     978262  HIT %:     78.256  MISS %:     21.744   MPKI: 4.89131
STLB LOAD TRANSLATION ACCESS:    4453376  HIT:    3485898  MISS:     967478  HIT %:    78.2754  MISS %:    21.7246   MPKI: 4.83739
STLB TRANSLATION FROM L1D PREFETCHER ACCESS:      45626  HIT:      34842  MISS:      10784  HIT %:    76.3644  MISS %:    23.6356   MPKI: 0.05392
STLB PREFETCH  REQUESTED:          0  ISSUED:          0  USEFUL:       6640  USELESS:       4141
STLB USEFUL LOAD PREFETCHES:       6640 PREFETCH ISSUED TO LOWER LEVEL:          0  ACCURACY: inf
STLB TIMELY PREFETCHES:       6640 LATE PREFETCHES: 0 DROPPED PREFETCHES: 10516
STLB PREFETCHES SAME FILL-ORIGIN LEVEL: 0 DIFFERENT FILL-ORIGIN LEVEL: 0
STLB AVERAGE MISS LATENCY: 66.4963 cycles
STLB RQ	ACCESS:    4546295	FORWARD:          0	MERGED:      36717	TO_CACHE:    4509578

STLB Hit, L1D data hit: 0
STLB Hit, L2C data hit: 0
STLB Hit, LLC data hit: 0
STLB Hit, LLC data miss: 0
STLB STLB hints to L2: 0
L1D TOTAL     ACCESS:   86183043  HIT:   82474918  MISS:    3708125  HIT %:    95.6974  MISS %:    4.30262   MPKI: 18.5406
L1D LOAD      ACCESS:   50284392  HIT:   47067403  MISS:    3216989  HIT %:    93.6024  MISS %:    6.39759   MPKI: 16.0849
L1D RFO       ACCESS:   35879534  HIT:   35396096  MISS:     483438  HIT %:    98.6526  MISS %:    1.34739   MPKI: 2.41719
L1D PREFETCH  ACCESS:      19117  HIT:      11419  MISS:       7698  HIT %:    59.7322  MISS %:    40.2678   MPKI: 0.03849
L1D PREFETCH  REQUESTED:     186716  ISSUED:     186716  USEFUL:       3623  USELESS:       4075
L1D USEFUL LOAD PREFETCHES:       3623 PREFETCH ISSUED TO LOWER LEVEL:      68913  ACCURACY: 5.25735
L1D TIMELY PREFETCHES:       3623 LATE PREFETCHES: 4 DROPPED PREFETCHES: 12071
L1D PREFETCHES SAME FILL-ORIGIN LEVEL: 7702 DIFFERENT FILL-ORIGIN LEVEL: 61211
L1D AVERAGE MISS LATENCY: 131.249 cycles
L1D RQ	ACCESS:   63478612	FORWARD:          0	MERGED:   10146603	TO_CACHE:   50663553
L1D WQ	ACCESS:   37145107	FORWARD:    2668456	MERGED:     401200	TO_CACHE:   36743907
L1D PQ	ACCESS:      93797	FORWARD:          0	MERGED:        878	TO_CACHE:      92919

L1D UNIQUE REGIONS ACCESSED: 0
L1D REGIONS CONFLICTS: 0
L1D Cross Page Prefetch Requests: 77826
L1D Same Page Prefetch Requests: 59160
L1D ROI Sum of L1D PQ occupancy: 2417502
L1D PREFETCHES PUSHED FROM L2C: 0
L1I TOTAL     ACCESS:   38910213  HIT:   38789275  MISS:     120938  HIT %:    99.6892  MISS %:   0.310813   MPKI: 0.60469
L1I LOAD      ACCESS:   38910213  HIT:   38789275  MISS:     120938  HIT %:    99.6892  MISS %:   0.310813   MPKI: 0.60469
L1I PREFETCH  REQUESTED:          0  ISSUED:          0  USEFUL:          0  USELESS:          0
L1I USEFUL LOAD PREFETCHES:          0 PREFETCH ISSUED TO LOWER LEVEL:          0  ACCURACY: -nan
L1I TIMELY PREFETCHES:          0 LATE PREFETCHES: 0 DROPPED PREFETCHES: 0
L1I PREFETCHES SAME FILL-ORIGIN LEVEL: 0 DIFFERENT FILL-ORIGIN LEVEL: 0
L1I AVERAGE MISS LATENCY: 24.7246 cycles
L1I RQ	ACCESS:   57566950	FORWARD:          0	MERGED:   18609638	TO_CACHE:   38957312

BTB TOTAL     ACCESS:   32873212  HIT:   30947949  MISS:    1925263  HIT %:    94.1434  MISS %:    5.85663   MPKI: 9.62631
BTB BRANCH_DIRECT_JUMP	ACCESS:    2330259  HIT:    2330115  MISS:        144
BTB BRANCH_INDIRECT	ACCESS:     674227  HIT:     571148  MISS:     103079
BTB BRANCH_CONDITIONAL	ACCESS:   17721647  HIT:   17721118  MISS:        529
BTB BRANCH_DIRECT_CALL	ACCESS:    3701835  HIT:    3701543  MISS:        292
BTB BRANCH_INDIRECT_CALL	ACCESS:    2371706  HIT:    2363088  MISS:       8618
BTB BRANCH_RETURN	ACCESS:    6073538  HIT:    4260937  MISS:    1812601
BTB BRANCH_OTHER ACCESS:          0  HIT:          0  MISS:          0

L2C TOTAL     ACCESS:    7126232  HIT:    3708751  MISS:    3417481  HIT %:    52.0436  MISS %:    47.9564   MPKI: 17.0874
L2C LOAD      ACCESS:    3337850  HIT:     971676  MISS:    2366174  HIT %:    29.1108  MISS %:    70.8892   MPKI: 11.8309
L2C DATA LOAD MPKI: 11.7406
L2C INSTRUCTION LOAD MPKI: 0.09023
L2C RFO       ACCESS:     483434  HIT:     124503  MISS:     358931  HIT %:    25.7539  MISS %:    74.2461   MPKI: 1.79465
L2C PREFETCH  ACCESS:      68790  HIT:      15496  MISS:      53294  HIT %:    22.5265  MISS %:    77.4735   MPKI: 0.26647
L2C DATA PREFETCH MPKI: 0.26647
L2C INSTRUCTION PREFETCH MPKI: 0
L2C WRITEBACK ACCESS:    1816268  HIT:    1779916  MISS:      36352  HIT %:    97.9985  MISS %:    2.00147   MPKI: 0.18176
L2C LOAD TRANSLATION ACCESS:    1388089  HIT:     787339  MISS:     600750  HIT %:    56.7211  MISS %:    43.2789   MPKI: 3.00375
L2C TRANSLATION FROM L1D PREFETCHER ACCESS:      31801  HIT:      29821  MISS:       1980  HIT %:    93.7738  MISS %:    6.22622   MPKI: 0.0099
L2C PREFETCH  REQUESTED:          0  ISSUED:          0  USEFUL:      11579  USELESS:      43748
L2C USEFUL LOAD PREFETCHES:      11579 PREFETCH ISSUED TO LOWER LEVEL:      53315  ACCURACY: 21.7181
L2C TIMELY PREFETCHES:      11579 LATE PREFETCHES: 21 DROPPED PREFETCHES: 0
L2C PREFETCHES SAME FILL-ORIGIN LEVEL: 49005 DIFFERENT FILL-ORIGIN LEVEL: 0
L2C AVERAGE MISS LATENCY: 139.766 cycles
L2C RQ	ACCESS:    5241250	FORWARD:          0	MERGED:          0	TO_CACHE:    5241174
L2C WQ	ACCESS:    1816268	FORWARD:         76	MERGED:          0	TO_CACHE:    1816268
L2C PQ	ACCESS:      68913	FORWARD:          0	MERGED:          0	TO_CACHE:      68913

L2C Instructions Evicting Data 14711
L2C Translations Evicting Data 490911
L2C Data Evicting Data 2260083
L2C Instructions Evicting Instructions 333
L2C Translations Evicting Instructions 3021
L2C Data Evicting Instructions 14401
L2C Instructions Evicting Translations 3002
L2C Translations Evicting Translations 108798
L2C Data Evicting Translations 485869
L2C Dense regions hint from L2: 0
PSCL5 TOTAL     ACCESS:     988778  HIT:     988778  MISS:          0  HIT %:        100  MISS %:          0   MPKI: 0
PSCL5 LOAD TRANSLATION ACCESS:     967478  HIT:     967478  MISS:          0  HIT %:        100  MISS %:          0   MPKI: 0
PSCL5 TRANSLATION FROM L1D PREFETCHER ACCESS:      21300  HIT:      21300  MISS:          0  HIT %:        100  MISS %:          0   MPKI: 0
PSCL5 PREFETCH  REQUESTED:          0  ISSUED:          0  USEFUL:          0  USELESS:          0
PSCL5 USEFUL LOAD PREFETCHES:          0 PREFETCH ISSUED TO LOWER LEVEL:          0  ACCURACY: -nan
PSCL5 TIMELY PREFETCHES:          0 LATE PREFETCHES: 0 DROPPED PREFETCHES: 0
PSCL5 PREFETCHES SAME FILL-ORIGIN LEVEL: 0 DIFFERENT FILL-ORIGIN LEVEL: 0

PSCL4 TOTAL     ACCESS:     988778  HIT:     988778  MISS:          0  HIT %:        100  MISS %:          0   MPKI: 0
PSCL4 LOAD TRANSLATION ACCESS:     967478  HIT:     967478  MISS:          0  HIT %:        100  MISS %:          0   MPKI: 0
PSCL4 TRANSLATION FROM L1D PREFETCHER ACCESS:      21300  HIT:      21300  MISS:          0  HIT %:        100  MISS %:          0   MPKI: 0
PSCL4 PREFETCH  REQUESTED:          0  ISSUED:          0  USEFUL:          0  USELESS:          0
PSCL4 USEFUL LOAD PREFETCHES:          0 PREFETCH ISSUED TO LOWER LEVEL:          0  ACCURACY: -nan
PSCL4 TIMELY PREFETCHES:          0 LATE PREFETCHES: 0 DROPPED PREFETCHES: 0
PSCL4 PREFETCHES SAME FILL-ORIGIN LEVEL: 0 DIFFERENT FILL-ORIGIN LEVEL: 0

PSCL3 TOTAL     ACCESS:     988778  HIT:     988778  MISS:          0  HIT %:        100  MISS %:          0   MPKI: 0
PSCL3 LOAD TRANSLATION ACCESS:     967478  HIT:     967478  MISS:          0  HIT %:        100  MISS %:          0   MPKI: 0
PSCL3 TRANSLATION FROM L1D PREFETCHER ACCESS:      21300  HIT:      21300  MISS:          0  HIT %:        100  MISS %:          0   MPKI: 0
PSCL3 PREFETCH  REQUESTED:          0  ISSUED:          0  USEFUL:          0  USELESS:          0
PSCL3 USEFUL LOAD PREFETCHES:          0 PREFETCH ISSUED TO LOWER LEVEL:          0  ACCURACY: -nan
PSCL3 TIMELY PREFETCHES:          0 LATE PREFETCHES: 0 DROPPED PREFETCHES: 0
PSCL3 PREFETCHES SAME FILL-ORIGIN LEVEL: 0 DIFFERENT FILL-ORIGIN LEVEL: 0

PSCL2 TOTAL     ACCESS:     979049  HIT:     557584  MISS:     421465  HIT %:    56.9516  MISS %:    43.0484   MPKI: 2.10732
PSCL2 LOAD TRANSLATION ACCESS:     968332  HIT:     546867  MISS:     421465  HIT %:    56.4752  MISS %:    43.5248   MPKI: 2.10732
PSCL2 TRANSLATION FROM L1D PREFETCHER ACCESS:      10717  HIT:      10717  MISS:          0  HIT %:        100  MISS %:          0   MPKI: 0
PSCL2 PREFETCH  REQUESTED:          0  ISSUED:          0  USEFUL:          0  USELESS:          0
PSCL2 USEFUL LOAD PREFETCHES:          0 PREFETCH ISSUED TO LOWER LEVEL:          0  ACCURACY: -nan
PSCL2 TIMELY PREFETCHES:          0 LATE PREFETCHES: 0 DROPPED PREFETCHES: 0
PSCL2 PREFETCHES SAME FILL-ORIGIN LEVEL: 0 DIFFERENT FILL-ORIGIN LEVEL: 0

LLC TOTAL     ACCESS:    4664434  HIT:    2348183  MISS:    2316251  HIT %:    50.3423  MISS %:    49.6577   MPKI: 11.5813
LLC LOAD      ACCESS:    2366153  HIT:     510436  MISS:    1855717  HIT %:    21.5724  MISS %:    78.4276   MPKI: 9.27858
LLC RFO       ACCESS:     358928  HIT:     105907  MISS:     253021  HIT %:    29.5065  MISS %:    70.4935   MPKI: 1.2651
LLC PREFETCH  ACCESS:      53315  HIT:       2678  MISS:      50637  HIT %:    5.02298  MISS %:     94.977   MPKI: 0.253185
LLC WRITEBACK ACCESS:    1283308  HIT:    1229207  MISS:      54101  HIT %:    95.7843  MISS %:    4.21575   MPKI: 0.270505
LLC LOAD TRANSLATION ACCESS:     600750  HIT:     498557  MISS:     102193  HIT %:    82.9891  MISS %:    17.0109   MPKI: 0.510965
LLC TRANSLATION FROM L1D PREFETCHER ACCESS:       1980  HIT:       1398  MISS:        582  HIT %:    70.6061  MISS %:    29.3939   MPKI: 0.00291
LLC PREFETCH  REQUESTED:          0  ISSUED:          0  USEFUL:       1335  USELESS:      50253
LLC USEFUL LOAD PREFETCHES:       1335 PREFETCH ISSUED TO LOWER LEVEL:      50637  ACCURACY: 2.63641
LLC TIMELY PREFETCHES:       1335 LATE PREFETCHES: 0 DROPPED PREFETCHES: 0
LLC PREFETCHES SAME FILL-ORIGIN LEVEL: 0 DIFFERENT FILL-ORIGIN LEVEL: 0
LLC AVERAGE MISS LATENCY: 162.409 cycles
LLC RQ	ACCESS:    3327814	FORWARD:          0	MERGED:          0	TO_CACHE:    3327811
LLC WQ	ACCESS:    1283308	FORWARD:          3	MERGED:          0	TO_CACHE:    1283308
LLC PQ	ACCESS:      53315	FORWARD:          0	MERGED:          0	TO_CACHE:      53315

LLC Dense regions hint to LLC: 0

RAW hits: 3393924
Loads Generated: 66872536
Loads sent to L1D: 63478612
Stores Generated: 37145093
Stores sent to L1D: 37145107
Major fault: 0 Minor fault: 53031
Allocated PAGES: 53031

DRAM Statistics
 CHANNEL 0
 RQ ROW_BUFFER_HIT:     140312  ROW_BUFFER_MISS:    2121831
 DBUS_CONGESTED:        399
 WQ ROW_BUFFER_HIT:     247985  ROW_BUFFER_MISS:     746878  FULL:          0

 AVG_CONGESTED_CYCLE: 5
 All warmup complete: 2
Channel 0 Bank busy for read cycles: 0
Channel 0 Bank busy for write cycles: 0
Channel 0
Rank 0
0banks busy for read cycles: 517021121
0banks busy for write cycles: 524358
1banks busy for read cycles: 179392797
1banks busy for write cycles: 82457301
2banks busy for read cycles: 46333193
2banks busy for write cycles: 32260891
3banks busy for read cycles: 11805388
3banks busy for write cycles: 10636671
4banks busy for read cycles: 3679704
4banks busy for write cycles: 3032439
5banks busy for read cycles: 309275
5banks busy for write cycles: 711485
6banks busy for read cycles: 112231
6banks busy for write cycles: 145668
7banks busy for read cycles: 74286
7banks busy for write cycles: 25632
8banks busy for read cycles: 44807
8banks busy for write cycles: 4316

CPU 0 Branch Prediction Accuracy: 97.0118% MPKI: 4.00969 Average ROB Occupancy at Mispredict: 36.3014
Branch types
NOT_BRANCH: 158010834 79.0054%
BRANCH_DIRECT_JUMP: 2330259 1.16513%
BRANCH_INDIRECT: 674227 0.337113%
BRANCH_CONDITIONAL: 26837260 13.4186%
BRANCH_DIRECT_CALL: 3701835 1.85092%
BRANCH_INDIRECT_CALL: 2371706 1.18585%
BRANCH_RETURN: 6073538 3.03677%
BRANCH_OTHER: 0 0%

DRAM PAGES: 1048576
Allocated PAGES: 53031
