 (TOTAL 523355 bits 511 Kbits) 
*** ChampSim Multicore Out-of-Order Simulator ***

Warmup Instructions: 50000000
Simulation Instructions: 200000000
Number of CPUs: 1
LLC sets: 2048
LLC ways: 16
Off-chip DRAM Size: 4096 MB Channels: 1 Width: 64-bit Data Rate: 6400 MT/s
argv[0]: ./ChampSim/Berti/bin/tagescl-no-vberti-no-no-no-no-no-lru-lru-lru-srrip-drrip-lru-lru-lru-1core-no
argv[1]: -warmup_instructions
argv[2]: 50000000
argv[3]: -simulation_instructions
argv[4]: 200000000
argv[5]: -traces
argv[6]: traces/spec2k17_ten/628.pop2_s-17B.champsimtrace.xz
CPU 0 runs traces/spec2k17_ten/628.pop2_s-17B.champsimtrace.xz
.xz
CPU 0 Tage branch predictor
BTB has LRU replacement policy
ITLB has LRU replacement policy
DTLB has LRU replacement policy
STLB has LRU replacement policy
L1I has LRU replacement policy
History Sets: 8
History Ways: 16
BERTI Size: 16
BERTI Stride Size: 16
L1D has LRU replacement policy
Initialize SRRIP state for L2C
Initialize DRRIP state for LLC
Heartbeat CPU 0 instructions: 10000003 cycles: 2993977 heartbeat IPC: 3.34004 cumulative IPC: 3.34004 (Simulation time: 0 hr 7 min 5 sec) 
Heartbeat CPU 0 instructions: 20000001 cycles: 5988095 heartbeat IPC: 3.33988 cumulative IPC: 3.33996 (Simulation time: 0 hr 14 min 49 sec) 
Heartbeat CPU 0 instructions: 30000003 cycles: 8981986 heartbeat IPC: 3.34014 cumulative IPC: 3.34002 (Simulation time: 0 hr 21 min 53 sec) 
Heartbeat CPU 0 instructions: 40000003 cycles: 11975705 heartbeat IPC: 3.34033 cumulative IPC: 3.3401 (Simulation time: 0 hr 28 min 53 sec) 
Heartbeat CPU 0 instructions: 50000002 cycles: 14971454 heartbeat IPC: 3.33806 cumulative IPC: 3.33969 (Simulation time: 0 hr 35 min 0 sec) 

Warmup complete CPU 0 instructions: 50000002 cycles: 14971454 (Simulation time: 0 hr 35 min 0 sec) 

Heartbeat CPU 0 instructions: 60000001 cycles: 26925321 heartbeat IPC: 0.836549 cumulative IPC: 0.836549 (Simulation time: 0 hr 43 min 37 sec) 
Heartbeat CPU 0 instructions: 70000002 cycles: 38793391 heartbeat IPC: 0.842597 cumulative IPC: 0.839562 (Simulation time: 0 hr 52 min 27 sec) 
Heartbeat CPU 0 instructions: 80000000 cycles: 50391812 heartbeat IPC: 0.862186 cumulative IPC: 0.84697 (Simulation time: 0 hr 59 min 55 sec) 
Heartbeat CPU 0 instructions: 90000003 cycles: 63686472 heartbeat IPC: 0.752182 cumulative IPC: 0.821102 (Simulation time: 1 hr 6 min 50 sec) 
Heartbeat CPU 0 instructions: 100000002 cycles: 74991780 heartbeat IPC: 0.88454 cumulative IPC: 0.833051 (Simulation time: 1 hr 14 min 53 sec) 
Heartbeat CPU 0 instructions: 110000000 cycles: 87111699 heartbeat IPC: 0.825088 cumulative IPC: 0.831713 (Simulation time: 1 hr 21 min 58 sec) 
Heartbeat CPU 0 instructions: 120000000 cycles: 99813068 heartbeat IPC: 0.787317 cumulative IPC: 0.825067 (Simulation time: 1 hr 29 min 51 sec) 
Heartbeat CPU 0 instructions: 130000000 cycles: 112730571 heartbeat IPC: 0.774143 cumulative IPC: 0.818338 (Simulation time: 1 hr 36 min 42 sec) 
Heartbeat CPU 0 instructions: 140000002 cycles: 126726078 heartbeat IPC: 0.714515 cumulative IPC: 0.805336 (Simulation time: 1 hr 42 min 47 sec) 
Heartbeat CPU 0 instructions: 150000000 cycles: 139511332 heartbeat IPC: 0.782151 cumulative IPC: 0.802956 (Simulation time: 1 hr 46 min 50 sec) 
Heartbeat CPU 0 instructions: 160000000 cycles: 153381862 heartbeat IPC: 0.720953 cumulative IPC: 0.794738 (Simulation time: 1 hr 52 min 35 sec) 
Heartbeat CPU 0 instructions: 170000002 cycles: 163967624 heartbeat IPC: 0.944665 cumulative IPC: 0.80539 (Simulation time: 1 hr 57 min 49 sec) 
Heartbeat CPU 0 instructions: 180000003 cycles: 175330643 heartbeat IPC: 0.880048 cumulative IPC: 0.81068 (Simulation time: 2 hr 2 min 44 sec) 
Heartbeat CPU 0 instructions: 190000003 cycles: 187212381 heartbeat IPC: 0.841628 cumulative IPC: 0.812815 (Simulation time: 2 hr 8 min 2 sec) 
Heartbeat CPU 0 instructions: 200000000 cycles: 199051200 heartbeat IPC: 0.844679 cumulative IPC: 0.814864 (Simulation time: 2 hr 13 min 17 sec) 
Heartbeat CPU 0 instructions: 210000000 cycles: 210893888 heartbeat IPC: 0.844403 cumulative IPC: 0.81665 (Simulation time: 2 hr 18 min 44 sec) 
Heartbeat CPU 0 instructions: 220000000 cycles: 222758732 heartbeat IPC: 0.842826 cumulative IPC: 0.818144 (Simulation time: 2 hr 23 min 19 sec) 
Heartbeat CPU 0 instructions: 230000000 cycles: 234684916 heartbeat IPC: 0.838491 cumulative IPC: 0.819249 (Simulation time: 2 hr 27 min 16 sec) 
Heartbeat CPU 0 instructions: 240000002 cycles: 246612592 heartbeat IPC: 0.838386 cumulative IPC: 0.820234 (Simulation time: 2 hr 30 min 17 sec) 
Heartbeat CPU 0 instructions: 250000002 cycles: 258540442 heartbeat IPC: 0.838374 cumulative IPC: 0.821123 (Simulation time: 2 hr 32 min 14 sec) 
Finished CPU 0 instructions: 200000000 cycles: 243568988 cumulative IPC: 0.821123 (Simulation time: 2 hr 32 min 14 sec) 

ChampSim completed all CPUs

Region of Interest Statistics

CPU 0 cumulative IPC: 0.821123 instructions: 200000000 cycles: 243568988
ITLB TOTAL     ACCESS:   34561879  HIT:   34555710  MISS:       6169  HIT %:    99.9822  MISS %:  0.0178491   MPKI: 0.030845
ITLB LOAD TRANSLATION ACCESS:   34561879  HIT:   34555710  MISS:       6169  HIT %:    99.9822  MISS %:  0.0178491   MPKI: 0.030845
ITLB PREFETCH  REQUESTED:          0  ISSUED:          0  USEFUL:          0  USELESS:          0
ITLB USEFUL LOAD PREFETCHES:          0 PREFETCH ISSUED TO LOWER LEVEL:          0  ACCURACY: -nan
ITLB TIMELY PREFETCHES:          0 LATE PREFETCHES: 0 DROPPED PREFETCHES: 0
ITLB PREFETCHES SAME FILL-ORIGIN LEVEL: 0 DIFFERENT FILL-ORIGIN LEVEL: 0
ITLB AVERAGE MISS LATENCY: 13.7487 cycles
ITLB RQ	ACCESS:   39294928	FORWARD:          0	MERGED:    4731451	TO_CACHE:   34563477

DTLB TOTAL     ACCESS:   38051569  HIT:   37951483  MISS:     100086  HIT %:     99.737  MISS %:   0.263027   MPKI: 0.50043
DTLB LOAD TRANSLATION ACCESS:   38051569  HIT:   37951483  MISS:     100086  HIT %:     99.737  MISS %:   0.263027   MPKI: 0.50043
DTLB PREFETCH  REQUESTED:          0  ISSUED:          0  USEFUL:          0  USELESS:          0
DTLB USEFUL LOAD PREFETCHES:          0 PREFETCH ISSUED TO LOWER LEVEL:          0  ACCURACY: -nan
DTLB TIMELY PREFETCHES:          0 LATE PREFETCHES: 0 DROPPED PREFETCHES: 0
DTLB PREFETCHES SAME FILL-ORIGIN LEVEL: 0 DIFFERENT FILL-ORIGIN LEVEL: 0
DTLB AVERAGE MISS LATENCY: 21.5118 cycles
DTLB RQ	ACCESS:   41818053	FORWARD:          0	MERGED:    3737156	TO_CACHE:   38080897

STLB TOTAL     ACCESS:    7601670  HIT:    7591961  MISS:       9709  HIT %:    99.8723  MISS %:   0.127722   MPKI: 0.048545
STLB LOAD TRANSLATION ACCESS:     106255  HIT:      98188  MISS:       8067  HIT %:    92.4079  MISS %:    7.59211   MPKI: 0.040335
STLB TRANSLATION FROM L1D PREFETCHER ACCESS:    7495415  HIT:    7493773  MISS:       1642  HIT %:    99.9781  MISS %:  0.0219067   MPKI: 0.00821
STLB PREFETCH  REQUESTED:          0  ISSUED:          0  USEFUL:       1637  USELESS:          5
STLB USEFUL LOAD PREFETCHES:       1637 PREFETCH ISSUED TO LOWER LEVEL:          0  ACCURACY: inf
STLB TIMELY PREFETCHES:       1637 LATE PREFETCHES: 760 DROPPED PREFETCHES: 84722
STLB PREFETCHES SAME FILL-ORIGIN LEVEL: 0 DIFFERENT FILL-ORIGIN LEVEL: 0
STLB AVERAGE MISS LATENCY: 145.033 cycles
STLB RQ	ACCESS:   39034265	FORWARD:          0	MERGED:   31335039	TO_CACHE:    7699226

STLB Hit, L1D data hit: 0
STLB Hit, L2C data hit: 0
STLB Hit, LLC data hit: 0
STLB Hit, LLC data miss: 0
STLB STLB hints to L2: 0
L1D TOTAL     ACCESS:   70282229  HIT:   67120602  MISS:    3161627  HIT %:    95.5015  MISS %:    4.49847   MPKI: 15.8081
L1D LOAD      ACCESS:   28154370  HIT:   27377180  MISS:     777190  HIT %:    97.2395  MISS %:    2.76046   MPKI: 3.88595
L1D RFO       ACCESS:   11441576  HIT:   10432958  MISS:    1008618  HIT %:    91.1846  MISS %:    8.81538   MPKI: 5.04309
L1D PREFETCH  ACCESS:   30686283  HIT:   29310464  MISS:    1375819  HIT %:    95.5165  MISS %:     4.4835   MPKI: 6.8791
L1D PREFETCH  REQUESTED:   91895654  ISSUED:   82074760  USEFUL:    1189895  USELESS:     185901
L1D USEFUL LOAD PREFETCHES:    1189895 PREFETCH ISSUED TO LOWER LEVEL:    8796228  ACCURACY: 13.5273
L1D TIMELY PREFETCHES:    1189895 LATE PREFETCHES: 19145 DROPPED PREFETCHES: 224471
L1D PREFETCHES SAME FILL-ORIGIN LEVEL: 1395015 DIFFERENT FILL-ORIGIN LEVEL: 7401213
L1D AVERAGE MISS LATENCY: 51.9639 cycles
L1D RQ	ACCESS:   39798948	FORWARD:          0	MERGED:   11173463	TO_CACHE:   28440156
L1D WQ	ACCESS:   13600317	FORWARD:     185452	MERGED:     222420	TO_CACHE:   13377897
L1D PQ	ACCESS:   43146750	FORWARD:          0	MERGED:    4218617	TO_CACHE:   38928010

L1D UNIQUE REGIONS ACCESSED: 0
L1D REGIONS CONFLICTS: 0
L1D Cross Page Prefetch Requests: 4579786
L1D Same Page Prefetch Requests: 53618022
L1D ROI Sum of L1D PQ occupancy: 595466211
L1D PREFETCHES PUSHED FROM L2C: 0
L1I TOTAL     ACCESS:   39245186  HIT:   39130382  MISS:     114804  HIT %:    99.7075  MISS %:    0.29253   MPKI: 0.57402
L1I LOAD      ACCESS:   39245186  HIT:   39130382  MISS:     114804  HIT %:    99.7075  MISS %:    0.29253   MPKI: 0.57402
L1I PREFETCH  REQUESTED:          0  ISSUED:          0  USEFUL:          0  USELESS:          0
L1I USEFUL LOAD PREFETCHES:          0 PREFETCH ISSUED TO LOWER LEVEL:          0  ACCURACY: -nan
L1I TIMELY PREFETCHES:          0 LATE PREFETCHES: 0 DROPPED PREFETCHES: 0
L1I PREFETCHES SAME FILL-ORIGIN LEVEL: 0 DIFFERENT FILL-ORIGIN LEVEL: 0
L1I AVERAGE MISS LATENCY: 51.4108 cycles
L1I RQ	ACCESS:   59995566	FORWARD:          0	MERGED:   20700638	TO_CACHE:   39294928

BTB TOTAL     ACCESS:   29674718  HIT:   29620843  MISS:      53875  HIT %:    99.8184  MISS %:   0.181552   MPKI: 0.269375
BTB BRANCH_DIRECT_JUMP	ACCESS:     633395  HIT:     632983  MISS:        412
BTB BRANCH_INDIRECT	ACCESS:       8917  HIT:       8176  MISS:        741
BTB BRANCH_CONDITIONAL	ACCESS:   27681844  HIT:   27678194  MISS:       3650
BTB BRANCH_DIRECT_CALL	ACCESS:     675281  HIT:     673574  MISS:       1707
BTB BRANCH_INDIRECT_CALL	ACCESS:          0  HIT:          0  MISS:          0
BTB BRANCH_RETURN	ACCESS:     675281  HIT:     627916  MISS:      47365
BTB BRANCH_OTHER ACCESS:          0  HIT:          0  MISS:          0

L2C TOTAL     ACCESS:   11440882  HIT:   10011865  MISS:    1429017  HIT %:    87.5096  MISS %:    12.4904   MPKI: 7.14508
L2C LOAD      ACCESS:     872811  HIT:     537310  MISS:     335501  HIT %:    61.5609  MISS %:    38.4391   MPKI: 1.67751
L2C DATA LOAD MPKI: 1.11329
L2C INSTRUCTION LOAD MPKI: 0.564215
L2C RFO       ACCESS:    1008543  HIT:     633967  MISS:     374576  HIT %:    62.8597  MISS %:    37.1403   MPKI: 1.87288
L2C PREFETCH  ACCESS:    8105921  HIT:    7409981  MISS:     695940  HIT %:    91.4144  MISS %:    8.58558   MPKI: 3.4797
L2C DATA PREFETCH MPKI: 3.4797
L2C INSTRUCTION PREFETCH MPKI: 0
L2C WRITEBACK ACCESS:    1326859  HIT:    1311734  MISS:      15125  HIT %:    98.8601  MISS %:    1.13991   MPKI: 0.075625
L2C LOAD TRANSLATION ACCESS:       9475  HIT:       6473  MISS:       3002  HIT %:    68.3166  MISS %:    31.6834   MPKI: 0.01501
L2C TRANSLATION FROM L1D PREFETCHER ACCESS:     117273  HIT:     112400  MISS:       4873  HIT %:    95.8447  MISS %:    4.15526   MPKI: 0.024365
L2C PREFETCH  REQUESTED:          0  ISSUED:          0  USEFUL:     165587  USELESS:     535987
L2C USEFUL LOAD PREFETCHES:     165587 PREFETCH ISSUED TO LOWER LEVEL:     713759  ACCURACY: 23.1993
L2C TIMELY PREFETCHES:     165587 LATE PREFETCHES: 17819 DROPPED PREFETCHES: 0
L2C PREFETCHES SAME FILL-ORIGIN LEVEL: 442310 DIFFERENT FILL-ORIGIN LEVEL: 0
L2C AVERAGE MISS LATENCY: 120.983 cycles
L2C RQ	ACCESS:    2008215	FORWARD:          0	MERGED:          0	TO_CACHE:    2008102
L2C WQ	ACCESS:    1326859	FORWARD:        160	MERGED:          0	TO_CACHE:    1326859
L2C PQ	ACCESS:    8795273	FORWARD:          0	MERGED:       1156	TO_CACHE:    8794070

L2C Instructions Evicting Data 101053
L2C Translations Evicting Data 7000
L2C Data Evicting Data 1185285
L2C Instructions Evicting Instructions 11041
L2C Translations Evicting Instructions 823
L2C Data Evicting Instructions 100881
L2C Instructions Evicting Translations 749
L2C Translations Evicting Translations 52
L2C Data Evicting Translations 7008
L2C Dense regions hint from L2: 0
PSCL5 TOTAL     ACCESS:      95148  HIT:      95148  MISS:          0  HIT %:        100  MISS %:          0   MPKI: 0
PSCL5 LOAD TRANSLATION ACCESS:       8024  HIT:       8024  MISS:          0  HIT %:        100  MISS %:          0   MPKI: 0
PSCL5 TRANSLATION FROM L1D PREFETCHER ACCESS:      87124  HIT:      87124  MISS:          0  HIT %:        100  MISS %:          0   MPKI: 0
PSCL5 PREFETCH  REQUESTED:          0  ISSUED:          0  USEFUL:          0  USELESS:          0
PSCL5 USEFUL LOAD PREFETCHES:          0 PREFETCH ISSUED TO LOWER LEVEL:          0  ACCURACY: -nan
PSCL5 TIMELY PREFETCHES:          0 LATE PREFETCHES: 0 DROPPED PREFETCHES: 0
PSCL5 PREFETCHES SAME FILL-ORIGIN LEVEL: 0 DIFFERENT FILL-ORIGIN LEVEL: 0

PSCL4 TOTAL     ACCESS:      95148  HIT:      95148  MISS:          0  HIT %:        100  MISS %:          0   MPKI: 0
PSCL4 LOAD TRANSLATION ACCESS:       8024  HIT:       8024  MISS:          0  HIT %:        100  MISS %:          0   MPKI: 0
PSCL4 TRANSLATION FROM L1D PREFETCHER ACCESS:      87124  HIT:      87124  MISS:          0  HIT %:        100  MISS %:          0   MPKI: 0
PSCL4 PREFETCH  REQUESTED:          0  ISSUED:          0  USEFUL:          0  USELESS:          0
PSCL4 USEFUL LOAD PREFETCHES:          0 PREFETCH ISSUED TO LOWER LEVEL:          0  ACCURACY: -nan
PSCL4 TIMELY PREFETCHES:          0 LATE PREFETCHES: 0 DROPPED PREFETCHES: 0
PSCL4 PREFETCHES SAME FILL-ORIGIN LEVEL: 0 DIFFERENT FILL-ORIGIN LEVEL: 0

PSCL3 TOTAL     ACCESS:      95148  HIT:      95148  MISS:          0  HIT %:        100  MISS %:          0   MPKI: 0
PSCL3 LOAD TRANSLATION ACCESS:       8024  HIT:       8024  MISS:          0  HIT %:        100  MISS %:          0   MPKI: 0
PSCL3 TRANSLATION FROM L1D PREFETCHER ACCESS:      87124  HIT:      87124  MISS:          0  HIT %:        100  MISS %:          0   MPKI: 0
PSCL3 PREFETCH  REQUESTED:          0  ISSUED:          0  USEFUL:          0  USELESS:          0
PSCL3 USEFUL LOAD PREFETCHES:          0 PREFETCH ISSUED TO LOWER LEVEL:          0  ACCURACY: -nan
PSCL3 TIMELY PREFETCHES:          0 LATE PREFETCHES: 0 DROPPED PREFETCHES: 0
PSCL3 PREFETCHES SAME FILL-ORIGIN LEVEL: 0 DIFFERENT FILL-ORIGIN LEVEL: 0

PSCL2 TOTAL     ACCESS:      65144  HIT:      63387  MISS:       1757  HIT %:    97.3029  MISS %:     2.6971   MPKI: 0.008785
PSCL2 LOAD TRANSLATION ACCESS:       8284  HIT:       6527  MISS:       1757  HIT %:    78.7904  MISS %:    21.2096   MPKI: 0.008785
PSCL2 TRANSLATION FROM L1D PREFETCHER ACCESS:      56860  HIT:      56860  MISS:          0  HIT %:        100  MISS %:          0   MPKI: 0
PSCL2 PREFETCH  REQUESTED:          0  ISSUED:          0  USEFUL:          0  USELESS:          0
PSCL2 USEFUL LOAD PREFETCHES:          0 PREFETCH ISSUED TO LOWER LEVEL:          0  ACCURACY: -nan
PSCL2 TIMELY PREFETCHES:          0 LATE PREFETCHES: 0 DROPPED PREFETCHES: 0
PSCL2 PREFETCHES SAME FILL-ORIGIN LEVEL: 0 DIFFERENT FILL-ORIGIN LEVEL: 0

LLC TOTAL     ACCESS:    1976048  HIT:    1265977  MISS:     710071  HIT %:    64.0661  MISS %:    35.9339   MPKI: 3.55036
LLC LOAD      ACCESS:     317683  HIT:     246801  MISS:      70882  HIT %:    77.6878  MISS %:    22.3122   MPKI: 0.35441
LLC RFO       ACCESS:     374572  HIT:     147686  MISS:     226886  HIT %:    39.4279  MISS %:    60.5721   MPKI: 1.13443
LLC PREFETCH  ACCESS:     713759  HIT:     315443  MISS:     398316  HIT %:    44.1946  MISS %:    55.8054   MPKI: 1.99158
LLC WRITEBACK ACCESS:     562159  HIT:     550224  MISS:      11935  HIT %:    97.8769  MISS %:    2.12306   MPKI: 0.059675
LLC LOAD TRANSLATION ACCESS:       3002  HIT:       1722  MISS:       1280  HIT %:    57.3618  MISS %:    42.6382   MPKI: 0.0064
LLC TRANSLATION FROM L1D PREFETCHER ACCESS:       4873  HIT:       4101  MISS:        772  HIT %:    84.1576  MISS %:    15.8424   MPKI: 0.00386
LLC PREFETCH  REQUESTED:          0  ISSUED:          0  USEFUL:      24011  USELESS:     377357
LLC USEFUL LOAD PREFETCHES:      24011 PREFETCH ISSUED TO LOWER LEVEL:     398316  ACCURACY: 6.02813
LLC TIMELY PREFETCHES:      24011 LATE PREFETCHES: 0 DROPPED PREFETCHES: 0
LLC PREFETCHES SAME FILL-ORIGIN LEVEL: 0 DIFFERENT FILL-ORIGIN LEVEL: 0
LLC AVERAGE MISS LATENCY: 184.67 cycles
LLC RQ	ACCESS:     700133	FORWARD:          0	MERGED:          0	TO_CACHE:     700130
LLC WQ	ACCESS:     562159	FORWARD:          3	MERGED:          0	TO_CACHE:     562159
LLC PQ	ACCESS:     713759	FORWARD:          0	MERGED:          0	TO_CACHE:     713759

LLC Dense regions hint to LLC: 0

RAW hits: 695593
Loads Generated: 40494544
Loads sent to L1D: 39798948
Stores Generated: 13600306
Stores sent to L1D: 13600317
Major fault: 0 Minor fault: 9397
Allocated PAGES: 9397

DRAM Statistics
 CHANNEL 0
 RQ ROW_BUFFER_HIT:     250064  ROW_BUFFER_MISS:     448015
 DBUS_CONGESTED:       2564
 WQ ROW_BUFFER_HIT:      72331  ROW_BUFFER_MISS:     261501  FULL:          0

 AVG_CONGESTED_CYCLE: 5
 All warmup complete: 2
Channel 0 Bank busy for read cycles: 0
Channel 0 Bank busy for write cycles: 0
Channel 0
Rank 0
0banks busy for read cycles: 191462577
0banks busy for write cycles: 32282
1banks busy for read cycles: 16957789
1banks busy for write cycles: 4107308
2banks busy for read cycles: 10131227
2banks busy for write cycles: 2134077
3banks busy for read cycles: 3771814
3banks busy for write cycles: 1335006
4banks busy for read cycles: 2115718
4banks busy for write cycles: 991606
5banks busy for read cycles: 1117749
5banks busy for write cycles: 805617
6banks busy for read cycles: 835899
6banks busy for write cycles: 725597
7banks busy for read cycles: 644621
7banks busy for write cycles: 966564
8banks busy for read cycles: 1079536
8banks busy for write cycles: 4354002

CPU 0 Branch Prediction Accuracy: 99.7719% MPKI: 0.325015 Average ROB Occupancy at Mispredict: 23.5776
Branch types
NOT_BRANCH: 169508346 84.7542%
BRANCH_DIRECT_JUMP: 633395 0.316698%
BRANCH_INDIRECT: 8917 0.0044585%
BRANCH_CONDITIONAL: 28498607 14.2493%
BRANCH_DIRECT_CALL: 675281 0.337641%
BRANCH_INDIRECT_CALL: 0 0%
BRANCH_RETURN: 675281 0.337641%
BRANCH_OTHER: 0 0%

DRAM PAGES: 1048576
Allocated PAGES: 9397
