526208 bits of metadata so far, 405638 left out of 526336 total budget
table size is 13521 bits, 2253 entries for 5 bit, 1931 entries for 6 bit
526208 total bits (64.23KB)

*** ChampSim Multicore Out-of-Order Simulator ***

Warmup Instructions: 50000000
Simulation Instructions: 200000000
Number of CPUs: 1
LLC sets: 2048
LLC ways: 16
Off-chip DRAM Size: 4096 MB Channels: 1 Width: 64-bit Data Rate: 6400 MT/s
argv[0]: ./ChampSim/Berti/bin/multiperspective_perceptron-no-vberti-no-no-no-no-no-lru-lru-lru-srrip-drrip-lru-lru-lru-1core-no
argv[1]: -warmup_instructions
argv[2]: 50000000
argv[3]: -simulation_instructions
argv[4]: 200000000
argv[5]: -traces
argv[6]: traces/spec2k17_ten/605.mcf_s-1554B.champsimtrace.xz
CPU 0 runs traces/spec2k17_ten/605.mcf_s-1554B.champsimtrace.xz
.xz
CPU 0 Multiperspective perceptron branch predictor
BTB has LRU replacement policy
ITLB has LRU replacement policy
DTLB has LRU replacement policy
STLB has LRU replacement policy
L1I has LRU replacement policy
History Sets: 8
History Ways: 16
BERTI Size: 16
BERTI Stride Size: 16
L1D has LRU replacement policy
Initialize SRRIP state for L2C
Initialize DRRIP state for LLC
Heartbeat CPU 0 instructions: 10000001 cycles: 3463981 heartbeat IPC: 2.88685 cumulative IPC: 2.88685 (Simulation time: 0 hr 9 min 30 sec) 
Heartbeat CPU 0 instructions: 20000000 cycles: 6950626 heartbeat IPC: 2.86809 cumulative IPC: 2.87744 (Simulation time: 0 hr 12 min 15 sec) 
Heartbeat CPU 0 instructions: 30000002 cycles: 10446582 heartbeat IPC: 2.86045 cumulative IPC: 2.87175 (Simulation time: 0 hr 17 min 38 sec) 
Heartbeat CPU 0 instructions: 40000001 cycles: 13929761 heartbeat IPC: 2.87094 cumulative IPC: 2.87155 (Simulation time: 0 hr 23 min 58 sec) 
Heartbeat CPU 0 instructions: 50000001 cycles: 17415959 heartbeat IPC: 2.86845 cumulative IPC: 2.87093 (Simulation time: 0 hr 30 min 23 sec) 

Warmup complete CPU 0 instructions: 50000001 cycles: 17415959 (Simulation time: 0 hr 30 min 23 sec) 

Heartbeat CPU 0 instructions: 60000002 cycles: 32319522 heartbeat IPC: 0.670981 cumulative IPC: 0.670981 (Simulation time: 0 hr 38 min 21 sec) 
Heartbeat CPU 0 instructions: 70000002 cycles: 47482956 heartbeat IPC: 0.659481 cumulative IPC: 0.665181 (Simulation time: 0 hr 45 min 29 sec) 
Heartbeat CPU 0 instructions: 80000000 cycles: 62807572 heartbeat IPC: 0.652545 cumulative IPC: 0.660915 (Simulation time: 0 hr 54 min 21 sec) 
Heartbeat CPU 0 instructions: 90000003 cycles: 78081940 heartbeat IPC: 0.654692 cumulative IPC: 0.659348 (Simulation time: 1 hr 5 min 6 sec) 
Heartbeat CPU 0 instructions: 100000000 cycles: 93320064 heartbeat IPC: 0.656249 cumulative IPC: 0.658726 (Simulation time: 1 hr 15 min 46 sec) 
Heartbeat CPU 0 instructions: 110000000 cycles: 108583942 heartbeat IPC: 0.655142 cumulative IPC: 0.658126 (Simulation time: 1 hr 25 min 22 sec) 
Heartbeat CPU 0 instructions: 120000000 cycles: 123426010 heartbeat IPC: 0.673761 cumulative IPC: 0.660315 (Simulation time: 1 hr 31 min 52 sec) 
Heartbeat CPU 0 instructions: 130000000 cycles: 138654453 heartbeat IPC: 0.656666 cumulative IPC: 0.659856 (Simulation time: 1 hr 37 min 7 sec) 
Heartbeat CPU 0 instructions: 140000003 cycles: 153955432 heartbeat IPC: 0.653553 cumulative IPC: 0.65915 (Simulation time: 1 hr 41 min 23 sec) 
Heartbeat CPU 0 instructions: 150000001 cycles: 169074577 heartbeat IPC: 0.661413 cumulative IPC: 0.659376 (Simulation time: 1 hr 46 min 10 sec) 
Heartbeat CPU 0 instructions: 160000003 cycles: 183701712 heartbeat IPC: 0.683661 cumulative IPC: 0.661512 (Simulation time: 1 hr 49 min 21 sec) 
Heartbeat CPU 0 instructions: 170000003 cycles: 198590189 heartbeat IPC: 0.67166 cumulative IPC: 0.662346 (Simulation time: 1 hr 52 min 5 sec) 
Heartbeat CPU 0 instructions: 180000003 cycles: 213548916 heartbeat IPC: 0.668506 cumulative IPC: 0.662816 (Simulation time: 1 hr 54 min 34 sec) 
Heartbeat CPU 0 instructions: 190000001 cycles: 228422527 heartbeat IPC: 0.672332 cumulative IPC: 0.663486 (Simulation time: 1 hr 56 min 10 sec) 
Heartbeat CPU 0 instructions: 200000002 cycles: 243210227 heartbeat IPC: 0.676238 cumulative IPC: 0.664322 (Simulation time: 1 hr 57 min 34 sec) 
Heartbeat CPU 0 instructions: 210000000 cycles: 258368169 heartbeat IPC: 0.65972 cumulative IPC: 0.664032 (Simulation time: 1 hr 58 min 57 sec) 
Heartbeat CPU 0 instructions: 220000000 cycles: 273660705 heartbeat IPC: 0.653914 cumulative IPC: 0.663428 (Simulation time: 2 hr 0 min 18 sec) 
Heartbeat CPU 0 instructions: 230000002 cycles: 288641109 heartbeat IPC: 0.667539 cumulative IPC: 0.663655 (Simulation time: 2 hr 1 min 39 sec) 
Heartbeat CPU 0 instructions: 240000001 cycles: 303888792 heartbeat IPC: 0.655837 cumulative IPC: 0.663239 (Simulation time: 2 hr 2 min 57 sec) 
Heartbeat CPU 0 instructions: 250000000 cycles: 319264270 heartbeat IPC: 0.650386 cumulative IPC: 0.662584 (Simulation time: 2 hr 4 min 15 sec) 
Finished CPU 0 instructions: 200000000 cycles: 301848371 cumulative IPC: 0.662584 (Simulation time: 2 hr 4 min 15 sec) 

ChampSim completed all CPUs

Region of Interest Statistics

CPU 0 cumulative IPC: 0.662584 instructions: 200000000 cycles: 301848371
ITLB TOTAL     ACCESS:   39512796  HIT:   39512796  MISS:          0  HIT %:        100  MISS %:          0   MPKI: 0
ITLB LOAD TRANSLATION ACCESS:   39512796  HIT:   39512796  MISS:          0  HIT %:        100  MISS %:          0   MPKI: 0
ITLB PREFETCH  REQUESTED:          0  ISSUED:          0  USEFUL:          0  USELESS:          0
ITLB USEFUL LOAD PREFETCHES:          0 PREFETCH ISSUED TO LOWER LEVEL:          0  ACCURACY: -nan
ITLB TIMELY PREFETCHES:          0 LATE PREFETCHES: 0 DROPPED PREFETCHES: 0
ITLB PREFETCHES SAME FILL-ORIGIN LEVEL: 0 DIFFERENT FILL-ORIGIN LEVEL: 0
ITLB AVERAGE MISS LATENCY: -nan cycles
ITLB RQ	ACCESS:   48287972	FORWARD:          0	MERGED:    8775176	TO_CACHE:   39512796

DTLB TOTAL     ACCESS:   61373637  HIT:   60573193  MISS:     800444  HIT %:    98.6958  MISS %:    1.30421   MPKI: 4.00222
DTLB LOAD TRANSLATION ACCESS:   61373637  HIT:   60573193  MISS:     800444  HIT %:    98.6958  MISS %:    1.30421   MPKI: 4.00222
DTLB PREFETCH  REQUESTED:          0  ISSUED:          0  USEFUL:          0  USELESS:          0
DTLB USEFUL LOAD PREFETCHES:          0 PREFETCH ISSUED TO LOWER LEVEL:          0  ACCURACY: -nan
DTLB TIMELY PREFETCHES:          0 LATE PREFETCHES: 0 DROPPED PREFETCHES: 0
DTLB PREFETCHES SAME FILL-ORIGIN LEVEL: 0 DIFFERENT FILL-ORIGIN LEVEL: 0
DTLB AVERAGE MISS LATENCY: 10.6815 cycles
DTLB RQ	ACCESS:   76343956	FORWARD:          0	MERGED:   14952445	TO_CACHE:   61391511

STLB TOTAL     ACCESS:   36005951  HIT:   35993661  MISS:      12290  HIT %:    99.9659  MISS %:  0.0341332   MPKI: 0.06145
STLB LOAD TRANSLATION ACCESS:     800444  HIT:     788549  MISS:      11895  HIT %:    98.5139  MISS %:    1.48605   MPKI: 0.059475
STLB TRANSLATION FROM L1D PREFETCHER ACCESS:   35205507  HIT:   35205112  MISS:        395  HIT %:    99.9989  MISS %: 0.00112198   MPKI: 0.001975
STLB PREFETCH  REQUESTED:          0  ISSUED:          0  USEFUL:        395  USELESS:          0
STLB USEFUL LOAD PREFETCHES:        395 PREFETCH ISSUED TO LOWER LEVEL:          0  ACCURACY: inf
STLB TIMELY PREFETCHES:        395 LATE PREFETCHES: 293 DROPPED PREFETCHES: 61240
STLB PREFETCHES SAME FILL-ORIGIN LEVEL: 0 DIFFERENT FILL-ORIGIN LEVEL: 0
STLB AVERAGE MISS LATENCY: 171.121 cycles
STLB RQ	ACCESS:  170889378	FORWARD:          0	MERGED:  134817948	TO_CACHE:   36071430

STLB Hit, L1D data hit: 0
STLB Hit, L2C data hit: 0
STLB Hit, LLC data hit: 0
STLB Hit, LLC data miss: 0
STLB STLB hints to L2: 0
L1D TOTAL     ACCESS:  183082802  HIT:  149210220  MISS:   33872582  HIT %:    81.4988  MISS %:    18.5012   MPKI: 169.363
L1D LOAD      ACCESS:   64347409  HIT:   60604576  MISS:    3742833  HIT %:    94.1834  MISS %:     5.8166   MPKI: 18.7142
L1D RFO       ACCESS:   10121401  HIT:    9720195  MISS:     401206  HIT %:    96.0361  MISS %:    3.96394   MPKI: 2.00603
L1D PREFETCH  ACCESS:  108613992  HIT:   78885449  MISS:   29728543  HIT %:    72.6292  MISS %:    27.3708   MPKI: 148.643
L1D PREFETCH  REQUESTED:  533934187  ISSUED:  358898295  USEFUL:   27015773  USELESS:    2712775
L1D USEFUL LOAD PREFETCHES:   27015773 PREFETCH ISSUED TO LOWER LEVEL:   84013524  ACCURACY: 32.1565
L1D TIMELY PREFETCHES:   27015773 LATE PREFETCHES: 1015064 DROPPED PREFETCHES: 173063
L1D PREFETCHES SAME FILL-ORIGIN LEVEL: 30991153 DIFFERENT FILL-ORIGIN LEVEL: 53022371
L1D AVERAGE MISS LATENCY: 57.6264 cycles
L1D RQ	ACCESS:   82966452	FORWARD:          0	MERGED:   18357800	TO_CACHE:   64472906
L1D WQ	ACCESS:   13518702	FORWARD:     135772	MERGED:    1647652	TO_CACHE:   11871050
L1D PQ	ACCESS:  188809361	FORWARD:          0	MERGED:   18720401	TO_CACHE:  170088934

L1D UNIQUE REGIONS ACCESSED: 0
L1D REGIONS CONFLICTS: 0
L1D Cross Page Prefetch Requests: 60652926
L1D Same Page Prefetch Requests: 152026627
L1D ROI Sum of L1D PQ occupancy: 2667657693
L1D PREFETCHES PUSHED FROM L2C: 0
L1I TOTAL     ACCESS:   48287972  HIT:   48287972  MISS:          0  HIT %:        100  MISS %:          0   MPKI: 0
L1I LOAD      ACCESS:   48287972  HIT:   48287972  MISS:          0  HIT %:        100  MISS %:          0   MPKI: 0
L1I PREFETCH  REQUESTED:          0  ISSUED:          0  USEFUL:          0  USELESS:          0
L1I USEFUL LOAD PREFETCHES:          0 PREFETCH ISSUED TO LOWER LEVEL:          0  ACCURACY: -nan
L1I TIMELY PREFETCHES:          0 LATE PREFETCHES: 0 DROPPED PREFETCHES: 0
L1I PREFETCHES SAME FILL-ORIGIN LEVEL: 0 DIFFERENT FILL-ORIGIN LEVEL: 0
L1I AVERAGE MISS LATENCY: -nan cycles
L1I RQ	ACCESS:   79849585	FORWARD:          0	MERGED:   31561613	TO_CACHE:   48287972

BTB TOTAL     ACCESS:   35943477  HIT:   35943445  MISS:         32  HIT %:    99.9999  MISS %: 8.90287e-05   MPKI: 0.00016
BTB BRANCH_DIRECT_JUMP	ACCESS:    8413979  HIT:    8413973  MISS:          6
BTB BRANCH_INDIRECT	ACCESS:          0  HIT:          0  MISS:          0
BTB BRANCH_CONDITIONAL	ACCESS:   27526342  HIT:   27526320  MISS:         22
BTB BRANCH_DIRECT_CALL	ACCESS:       1578  HIT:       1576  MISS:          2
BTB BRANCH_INDIRECT_CALL	ACCESS:          0  HIT:          0  MISS:          0
BTB BRANCH_RETURN	ACCESS:       1578  HIT:       1576  MISS:          2
BTB BRANCH_OTHER ACCESS:          0  HIT:          0  MISS:          0

L2C TOTAL     ACCESS:   74055343  HIT:   33094035  MISS:   40961308  HIT %:    44.6882  MISS %:    55.3118   MPKI: 204.807
L2C LOAD      ACCESS:    2727767  HIT:    2301829  MISS:     425938  HIT %:    84.3851  MISS %:    15.6149   MPKI: 2.12969
L2C DATA LOAD MPKI: 2.12969
L2C INSTRUCTION LOAD MPKI: 0
L2C RFO       ACCESS:     399573  HIT:       3533  MISS:     396040  HIT %:   0.884194  MISS %:    99.1158   MPKI: 1.9802
L2C PREFETCH  ACCESS:   70306130  HIT:   30176931  MISS:   40129199  HIT %:    42.9222  MISS %:    57.0778   MPKI: 200.646
L2C DATA PREFETCH MPKI: 200.646
L2C INSTRUCTION PREFETCH MPKI: 0
L2C WRITEBACK ACCESS:     547672  HIT:     543174  MISS:       4498  HIT %:    99.1787  MISS %:   0.821294   MPKI: 0.02249
L2C LOAD TRANSLATION ACCESS:      11896  HIT:      10179  MISS:       1717  HIT %:    85.5666  MISS %:    14.4334   MPKI: 0.008585
L2C TRANSLATION FROM L1D PREFETCHER ACCESS:      62305  HIT:      58389  MISS:       3916  HIT %:    93.7148  MISS %:    6.28521   MPKI: 0.01958
L2C PREFETCH  REQUESTED:          0  ISSUED:          0  USEFUL:    2305042  USELESS:   37827140
L2C USEFUL LOAD PREFETCHES:    2305042 PREFETCH ISSUED TO LOWER LEVEL:   40385385  ACCURACY: 5.70761
L2C TIMELY PREFETCHES:    2305042 LATE PREFETCHES: 256178 DROPPED PREFETCHES: 0
L2C PREFETCHES SAME FILL-ORIGIN LEVEL: 25380181 DIFFERENT FILL-ORIGIN LEVEL: 0
L2C AVERAGE MISS LATENCY: 100.706 cycles
L2C RQ	ACCESS:    3201545	FORWARD:          0	MERGED:          0	TO_CACHE:    3201541
L2C WQ	ACCESS:     547672	FORWARD:          4	MERGED:          0	TO_CACHE:     547672
L2C PQ	ACCESS:   80256970	FORWARD:          0	MERGED:     200251	TO_CACHE:   80056719

L2C Instructions Evicting Data 0
L2C Translations Evicting Data 5633
L2C Data Evicting Data 40945539
L2C Instructions Evicting Instructions 0
L2C Translations Evicting Instructions 0
L2C Data Evicting Instructions 0
L2C Instructions Evicting Translations 0
L2C Translations Evicting Translations 0
L2C Data Evicting Translations 5638
L2C Dense regions hint from L2: 0
PSCL5 TOTAL     ACCESS:      73814  HIT:      73814  MISS:          0  HIT %:        100  MISS %:          0   MPKI: 0
PSCL5 LOAD TRANSLATION ACCESS:      11886  HIT:      11886  MISS:          0  HIT %:        100  MISS %:          0   MPKI: 0
PSCL5 TRANSLATION FROM L1D PREFETCHER ACCESS:      61928  HIT:      61928  MISS:          0  HIT %:        100  MISS %:          0   MPKI: 0
PSCL5 PREFETCH  REQUESTED:          0  ISSUED:          0  USEFUL:          0  USELESS:          0
PSCL5 USEFUL LOAD PREFETCHES:          0 PREFETCH ISSUED TO LOWER LEVEL:          0  ACCURACY: -nan
PSCL5 TIMELY PREFETCHES:          0 LATE PREFETCHES: 0 DROPPED PREFETCHES: 0
PSCL5 PREFETCHES SAME FILL-ORIGIN LEVEL: 0 DIFFERENT FILL-ORIGIN LEVEL: 0

PSCL4 TOTAL     ACCESS:      73814  HIT:      73814  MISS:          0  HIT %:        100  MISS %:          0   MPKI: 0
PSCL4 LOAD TRANSLATION ACCESS:      11886  HIT:      11886  MISS:          0  HIT %:        100  MISS %:          0   MPKI: 0
PSCL4 TRANSLATION FROM L1D PREFETCHER ACCESS:      61928  HIT:      61928  MISS:          0  HIT %:        100  MISS %:          0   MPKI: 0
PSCL4 PREFETCH  REQUESTED:          0  ISSUED:          0  USEFUL:          0  USELESS:          0
PSCL4 USEFUL LOAD PREFETCHES:          0 PREFETCH ISSUED TO LOWER LEVEL:          0  ACCURACY: -nan
PSCL4 TIMELY PREFETCHES:          0 LATE PREFETCHES: 0 DROPPED PREFETCHES: 0
PSCL4 PREFETCHES SAME FILL-ORIGIN LEVEL: 0 DIFFERENT FILL-ORIGIN LEVEL: 0

PSCL3 TOTAL     ACCESS:      73814  HIT:      73813  MISS:          1  HIT %:    99.9986  MISS %: 0.00135476   MPKI: 5e-06
PSCL3 LOAD TRANSLATION ACCESS:      11886  HIT:      11885  MISS:          1  HIT %:    99.9916  MISS %: 0.00841326   MPKI: 5e-06
PSCL3 TRANSLATION FROM L1D PREFETCHER ACCESS:      61928  HIT:      61928  MISS:          0  HIT %:        100  MISS %:          0   MPKI: 0
PSCL3 PREFETCH  REQUESTED:          0  ISSUED:          0  USEFUL:          0  USELESS:          0
PSCL3 USEFUL LOAD PREFETCHES:          0 PREFETCH ISSUED TO LOWER LEVEL:          0  ACCURACY: -nan
PSCL3 TIMELY PREFETCHES:          0 LATE PREFETCHES: 0 DROPPED PREFETCHES: 0
PSCL3 PREFETCHES SAME FILL-ORIGIN LEVEL: 0 DIFFERENT FILL-ORIGIN LEVEL: 0

PSCL2 TOTAL     ACCESS:      73330  HIT:      73291  MISS:         39  HIT %:    99.9468  MISS %:  0.0531842   MPKI: 0.000195
PSCL2 LOAD TRANSLATION ACCESS:      11891  HIT:      11852  MISS:         39  HIT %:     99.672  MISS %:   0.327979   MPKI: 0.000195
PSCL2 TRANSLATION FROM L1D PREFETCHER ACCESS:      61439  HIT:      61439  MISS:          0  HIT %:        100  MISS %:          0   MPKI: 0
PSCL2 PREFETCH  REQUESTED:          0  ISSUED:          0  USEFUL:          0  USELESS:          0
PSCL2 USEFUL LOAD PREFETCHES:          0 PREFETCH ISSUED TO LOWER LEVEL:          0  ACCURACY: -nan
PSCL2 TIMELY PREFETCHES:          0 LATE PREFETCHES: 0 DROPPED PREFETCHES: 0
PSCL2 PREFETCHES SAME FILL-ORIGIN LEVEL: 0 DIFFERENT FILL-ORIGIN LEVEL: 0

LLC TOTAL     ACCESS:   41503960  HIT:   23507304  MISS:   17996656  HIT %:    56.6387  MISS %:    43.3613   MPKI: 89.9833
LLC LOAD      ACCESS:     170222  HIT:     102214  MISS:      68008  HIT %:    60.0475  MISS %:    39.9525   MPKI: 0.34004
LLC RFO       ACCESS:     395578  HIT:       2422  MISS:     393156  HIT %:   0.612269  MISS %:    99.3877   MPKI: 1.96578
LLC PREFETCH  ACCESS:   40385379  HIT:   23366921  MISS:   17018458  HIT %:    57.8599  MISS %:    42.1401   MPKI: 85.0923
LLC WRITEBACK ACCESS:     547148  HIT:      34132  MISS:     513016  HIT %:    6.23817  MISS %:    93.7618   MPKI: 2.56508
LLC LOAD TRANSLATION ACCESS:       1717  HIT:         26  MISS:       1691  HIT %:    1.51427  MISS %:    98.4857   MPKI: 0.008455
LLC TRANSLATION FROM L1D PREFETCHER ACCESS:       3916  HIT:       1589  MISS:       2327  HIT %:    40.5771  MISS %:    59.4229   MPKI: 0.011635
LLC PREFETCH  REQUESTED:          0  ISSUED:          0  USEFUL:       9291  USELESS:   17008361
LLC USEFUL LOAD PREFETCHES:       9291 PREFETCH ISSUED TO LOWER LEVEL:   17018464  ACCURACY: 0.0545936
LLC TIMELY PREFETCHES:       9291 LATE PREFETCHES: 0 DROPPED PREFETCHES: 0
LLC PREFETCHES SAME FILL-ORIGIN LEVEL: 0 DIFFERENT FILL-ORIGIN LEVEL: 0
LLC AVERAGE MISS LATENCY: 163.065 cycles
LLC RQ	ACCESS:     571433	FORWARD:          0	MERGED:          0	TO_CACHE:     571433
LLC WQ	ACCESS:     547148	FORWARD:          0	MERGED:          0	TO_CACHE:     547148
LLC PQ	ACCESS:   40385385	FORWARD:          0	MERGED:          0	TO_CACHE:   40385385

LLC Dense regions hint to LLC: 0

RAW hits: 8566495
Loads Generated: 91532952
Loads sent to L1D: 82966452
Stores Generated: 13518700
Stores sent to L1D: 13518702
Major fault: 0 Minor fault: 17320
Allocated PAGES: 17320

DRAM Statistics
 CHANNEL 0
 RQ ROW_BUFFER_HIT:   13174686  ROW_BUFFER_MISS:    4308218
 DBUS_CONGESTED:      12797
 WQ ROW_BUFFER_HIT:      82802  ROW_BUFFER_MISS:     459505  FULL:          0

 AVG_CONGESTED_CYCLE: 5
 All warmup complete: 2
Channel 0 Bank busy for read cycles: 0
Channel 0 Bank busy for write cycles: 0
Channel 0
Rank 0
0banks busy for read cycles: 422436
0banks busy for write cycles: 125
1banks busy for read cycles: 14636856
1banks busy for write cycles: 299424
2banks busy for read cycles: 27394249
2banks busy for write cycles: 291359
3banks busy for read cycles: 41685433
3banks busy for write cycles: 273306
4banks busy for read cycles: 50853060
4banks busy for write cycles: 243441
5banks busy for read cycles: 50778042
5banks busy for write cycles: 242291
6banks busy for read cycles: 42487149
6banks busy for write cycles: 314785
7banks busy for read cycles: 31667179
7banks busy for write cycles: 1472070
8banks busy for read cycles: 23236761
8banks busy for write cycles: 15550406

CPU 0 Branch Prediction Accuracy: 99.1808% MPKI: 1.15685 Average ROB Occupancy at Mispredict: 87.0892
Branch types
NOT_BRANCH: 163339846 81.6699%
BRANCH_DIRECT_JUMP: 8413979 4.20699%
BRANCH_INDIRECT: 0 0%
BRANCH_CONDITIONAL: 28243019 14.1215%
BRANCH_DIRECT_CALL: 1578 0.000789%
BRANCH_INDIRECT_CALL: 0 0%
BRANCH_RETURN: 1578 0.000789%
BRANCH_OTHER: 0 0%

DRAM PAGES: 1048576
Allocated PAGES: 17320
