526208 bits of metadata so far, 405638 left out of 526336 total budget
table size is 13521 bits, 2253 entries for 5 bit, 1931 entries for 6 bit
526208 total bits (64.23KB)

*** ChampSim Multicore Out-of-Order Simulator ***

Warmup Instructions: 50000000
Simulation Instructions: 200000000
Number of CPUs: 1
LLC sets: 2048
LLC ways: 16
Off-chip DRAM Size: 4096 MB Channels: 1 Width: 64-bit Data Rate: 6400 MT/s
argv[0]: ./ChampSim/Berti/bin/multiperspective_perceptron-no-vberti-no-no-no-no-no-lru-lru-lru-srrip-drrip-lru-lru-lru-1core-no
argv[1]: -warmup_instructions
argv[2]: 50000000
argv[3]: -simulation_instructions
argv[4]: 200000000
argv[5]: -traces
argv[6]: traces/spec2k17_ten/605.mcf_s-782B.champsimtrace.xz
CPU 0 runs traces/spec2k17_ten/605.mcf_s-782B.champsimtrace.xz
.xz
CPU 0 Multiperspective perceptron branch predictor
BTB has LRU replacement policy
ITLB has LRU replacement policy
DTLB has LRU replacement policy
STLB has LRU replacement policy
L1I has LRU replacement policy
History Sets: 8
History Ways: 16
BERTI Size: 16
BERTI Stride Size: 16
L1D has LRU replacement policy
Initialize SRRIP state for L2C
Initialize DRRIP state for LLC
Heartbeat CPU 0 instructions: 10000001 cycles: 3758983 heartbeat IPC: 2.66029 cumulative IPC: 2.66029 (Simulation time: 0 hr 14 min 22 sec) 
Heartbeat CPU 0 instructions: 20000000 cycles: 7488324 heartbeat IPC: 2.68144 cumulative IPC: 2.67082 (Simulation time: 0 hr 21 min 31 sec) 
Heartbeat CPU 0 instructions: 30000000 cycles: 11272156 heartbeat IPC: 2.64282 cumulative IPC: 2.66143 (Simulation time: 0 hr 31 min 10 sec) 
Heartbeat CPU 0 instructions: 40000003 cycles: 15027398 heartbeat IPC: 2.66295 cumulative IPC: 2.6618 (Simulation time: 0 hr 41 min 27 sec) 
Heartbeat CPU 0 instructions: 50000000 cycles: 18820524 heartbeat IPC: 2.63635 cumulative IPC: 2.65667 (Simulation time: 0 hr 48 min 25 sec) 

Warmup complete CPU 0 instructions: 50000001 cycles: 18820525 (Simulation time: 0 hr 48 min 25 sec) 

Heartbeat CPU 0 instructions: 60000001 cycles: 59812736 heartbeat IPC: 0.243949 cumulative IPC: 0.243949 (Simulation time: 0 hr 58 min 46 sec) 
Heartbeat CPU 0 instructions: 70000002 cycles: 99603221 heartbeat IPC: 0.251316 cumulative IPC: 0.247578 (Simulation time: 1 hr 9 min 55 sec) 
Heartbeat CPU 0 instructions: 80000002 cycles: 139312021 heartbeat IPC: 0.251833 cumulative IPC: 0.24898 (Simulation time: 1 hr 19 min 58 sec) 
Heartbeat CPU 0 instructions: 90000000 cycles: 181011082 heartbeat IPC: 0.239814 cumulative IPC: 0.246623 (Simulation time: 1 hr 29 min 17 sec) 
Heartbeat CPU 0 instructions: 100000001 cycles: 226654270 heartbeat IPC: 0.219091 cumulative IPC: 0.240577 (Simulation time: 1 hr 36 min 7 sec) 
Heartbeat CPU 0 instructions: 110000000 cycles: 273166312 heartbeat IPC: 0.214998 cumulative IPC: 0.235899 (Simulation time: 1 hr 41 min 34 sec) 
Heartbeat CPU 0 instructions: 120000000 cycles: 317541071 heartbeat IPC: 0.225353 cumulative IPC: 0.234333 (Simulation time: 1 hr 47 min 8 sec) 
Heartbeat CPU 0 instructions: 130000003 cycles: 358432845 heartbeat IPC: 0.244548 cumulative IPC: 0.235563 (Simulation time: 1 hr 50 min 53 sec) 
Heartbeat CPU 0 instructions: 140000001 cycles: 398374171 heartbeat IPC: 0.250367 cumulative IPC: 0.237121 (Simulation time: 1 hr 53 min 23 sec) 
Heartbeat CPU 0 instructions: 150000000 cycles: 439476238 heartbeat IPC: 0.243297 cumulative IPC: 0.237724 (Simulation time: 1 hr 55 min 13 sec) 
Heartbeat CPU 0 instructions: 160000002 cycles: 480474422 heartbeat IPC: 0.243913 cumulative IPC: 0.238274 (Simulation time: 1 hr 56 min 48 sec) 
Heartbeat CPU 0 instructions: 170000001 cycles: 521507665 heartbeat IPC: 0.243705 cumulative IPC: 0.238717 (Simulation time: 1 hr 58 min 8 sec) 
Heartbeat CPU 0 instructions: 180000002 cycles: 562396189 heartbeat IPC: 0.244567 cumulative IPC: 0.239157 (Simulation time: 1 hr 59 min 25 sec) 
Heartbeat CPU 0 instructions: 190000001 cycles: 607568296 heartbeat IPC: 0.221376 cumulative IPC: 0.237793 (Simulation time: 2 hr 0 min 44 sec) 
Heartbeat CPU 0 instructions: 200000002 cycles: 654210467 heartbeat IPC: 0.214398 cumulative IPC: 0.236076 (Simulation time: 2 hr 2 min 3 sec) 
Heartbeat CPU 0 instructions: 210000003 cycles: 698376437 heartbeat IPC: 0.226419 cumulative IPC: 0.235448 (Simulation time: 2 hr 3 min 18 sec) 
Heartbeat CPU 0 instructions: 220000000 cycles: 740746194 heartbeat IPC: 0.236017 cumulative IPC: 0.235481 (Simulation time: 2 hr 4 min 31 sec) 
Heartbeat CPU 0 instructions: 230000001 cycles: 782379701 heartbeat IPC: 0.240191 cumulative IPC: 0.235738 (Simulation time: 2 hr 5 min 43 sec) 
Heartbeat CPU 0 instructions: 240000003 cycles: 824102058 heartbeat IPC: 0.23968 cumulative IPC: 0.235942 (Simulation time: 2 hr 6 min 55 sec) 
Heartbeat CPU 0 instructions: 250000003 cycles: 864957517 heartbeat IPC: 0.244765 cumulative IPC: 0.236368 (Simulation time: 2 hr 8 min 7 sec) 
Finished CPU 0 instructions: 200000002 cycles: 846136992 cumulative IPC: 0.236368 (Simulation time: 2 hr 8 min 7 sec) 

ChampSim completed all CPUs

Region of Interest Statistics

CPU 0 cumulative IPC: 0.236368 instructions: 200000002 cycles: 846136992
ITLB TOTAL     ACCESS:   32766261  HIT:   32766261  MISS:          0  HIT %:        100  MISS %:          0   MPKI: 0
ITLB LOAD TRANSLATION ACCESS:   32766261  HIT:   32766261  MISS:          0  HIT %:        100  MISS %:          0   MPKI: 0
ITLB PREFETCH  REQUESTED:          0  ISSUED:          0  USEFUL:          0  USELESS:          0
ITLB USEFUL LOAD PREFETCHES:          0 PREFETCH ISSUED TO LOWER LEVEL:          0  ACCURACY: -nan
ITLB TIMELY PREFETCHES:          0 LATE PREFETCHES: 0 DROPPED PREFETCHES: 0
ITLB PREFETCHES SAME FILL-ORIGIN LEVEL: 0 DIFFERENT FILL-ORIGIN LEVEL: 0
ITLB AVERAGE MISS LATENCY: -nan cycles
ITLB RQ	ACCESS:   33245562	FORWARD:          0	MERGED:     479302	TO_CACHE:   32766260

DTLB TOTAL     ACCESS:   41424854  HIT:   23801997  MISS:   17622857  HIT %:    57.4583  MISS %:    42.5417   MPKI: 88.1143
DTLB LOAD TRANSLATION ACCESS:   41424854  HIT:   23801997  MISS:   17622857  HIT %:    57.4583  MISS %:    42.5417   MPKI: 88.1143
DTLB PREFETCH  REQUESTED:          0  ISSUED:          0  USEFUL:          0  USELESS:          0
DTLB USEFUL LOAD PREFETCHES:          0 PREFETCH ISSUED TO LOWER LEVEL:          0  ACCURACY: -nan
DTLB TIMELY PREFETCHES:          0 LATE PREFETCHES: 0 DROPPED PREFETCHES: 0
DTLB PREFETCHES SAME FILL-ORIGIN LEVEL: 0 DIFFERENT FILL-ORIGIN LEVEL: 0
DTLB AVERAGE MISS LATENCY: 11.1734 cycles
DTLB RQ	ACCESS:   45603287	FORWARD:          0	MERGED:    3904045	TO_CACHE:   41699242

STLB TOTAL     ACCESS:   25779712  HIT:   25541175  MISS:     238537  HIT %:    99.0747  MISS %:    0.92529   MPKI: 1.19268
STLB LOAD TRANSLATION ACCESS:   17622857  HIT:   17385549  MISS:     237308  HIT %:    98.6534  MISS %:    1.34659   MPKI: 1.18654
STLB TRANSLATION FROM L1D PREFETCHER ACCESS:    8156855  HIT:    8155626  MISS:       1229  HIT %:    99.9849  MISS %:  0.0150671   MPKI: 0.006145
STLB PREFETCH  REQUESTED:          0  ISSUED:          0  USEFUL:       1087  USELESS:        142
STLB USEFUL LOAD PREFETCHES:       1087 PREFETCH ISSUED TO LOWER LEVEL:          0  ACCURACY: inf
STLB TIMELY PREFETCHES:       1087 LATE PREFETCHES: 70345 DROPPED PREFETCHES: 4019416
STLB PREFETCHES SAME FILL-ORIGIN LEVEL: 0 DIFFERENT FILL-ORIGIN LEVEL: 0
STLB AVERAGE MISS LATENCY: 119.825 cycles
STLB RQ	ACCESS:   89038862	FORWARD:          0	MERGED:   58777227	TO_CACHE:   30261635

STLB Hit, L1D data hit: 0
STLB Hit, L2C data hit: 0
STLB Hit, LLC data hit: 0
STLB Hit, LLC data miss: 0
STLB STLB hints to L2: 0
L1D TOTAL     ACCESS:   86426588  HIT:   55465557  MISS:   30961031  HIT %:    64.1765  MISS %:    35.8235   MPKI: 154.805
L1D LOAD      ACCESS:   41966949  HIT:   20030086  MISS:   21936863  HIT %:    47.7282  MISS %:    52.2718   MPKI: 109.684
L1D RFO       ACCESS:    3348466  HIT:    3287951  MISS:      60515  HIT %:    98.1928  MISS %:    1.80725   MPKI: 0.302575
L1D PREFETCH  ACCESS:   41111173  HIT:   32147520  MISS:    8963653  HIT %:    78.1966  MISS %:    21.8034   MPKI: 44.8183
L1D PREFETCH  REQUESTED:  173650543  ISSUED:  158690705  USEFUL:    8959563  USELESS:       4081
L1D USEFUL LOAD PREFETCHES:    8959563 PREFETCH ISSUED TO LOWER LEVEL:   18442332  ACCURACY: 48.5815
L1D TIMELY PREFETCHES:    8959563 LATE PREFETCHES: 628959 DROPPED PREFETCHES: 12685352
L1D PREFETCHES SAME FILL-ORIGIN LEVEL: 9592639 DIFFERENT FILL-ORIGIN LEVEL: 8849693
L1D AVERAGE MISS LATENCY: 76.5486 cycles
L1D RQ	ACCESS:   71274533	FORWARD:          0	MERGED:   28574903	TO_CACHE:   42147899
L1D WQ	ACCESS:    3578449	FORWARD:     551759	MERGED:     123061	TO_CACHE:    3455388
L1D PQ	ACCESS:   87274700	FORWARD:          0	MERGED:   15858667	TO_CACHE:   71416005

L1D UNIQUE REGIONS ACCESSED: 0
L1D REGIONS CONFLICTS: 0
L1D Cross Page Prefetch Requests: 21444919
L1D Same Page Prefetch Requests: 87699083
L1D ROI Sum of L1D PQ occupancy: 1613268946
L1D PREFETCHES PUSHED FROM L2C: 0
L1I TOTAL     ACCESS:   33245560  HIT:   33245560  MISS:          0  HIT %:        100  MISS %:          0   MPKI: 0
L1I LOAD      ACCESS:   33245560  HIT:   33245560  MISS:          0  HIT %:        100  MISS %:          0   MPKI: 0
L1I PREFETCH  REQUESTED:          0  ISSUED:          0  USEFUL:          0  USELESS:          0
L1I USEFUL LOAD PREFETCHES:          0 PREFETCH ISSUED TO LOWER LEVEL:          0  ACCURACY: -nan
L1I TIMELY PREFETCHES:          0 LATE PREFETCHES: 0 DROPPED PREFETCHES: 0
L1I PREFETCHES SAME FILL-ORIGIN LEVEL: 0 DIFFERENT FILL-ORIGIN LEVEL: 0
L1I AVERAGE MISS LATENCY: -nan cycles
L1I RQ	ACCESS:   40640763	FORWARD:          0	MERGED:    7395201	TO_CACHE:   33245562

BTB TOTAL     ACCESS:   60210742  HIT:   60015897  MISS:     194845  HIT %:    99.6764  MISS %:   0.323605   MPKI: 0.974225
BTB BRANCH_DIRECT_JUMP	ACCESS:    7722186  HIT:    7722149  MISS:         37
BTB BRANCH_INDIRECT	ACCESS:          0  HIT:          0  MISS:          0
BTB BRANCH_CONDITIONAL	ACCESS:   51083201  HIT:   51083119  MISS:         82
BTB BRANCH_DIRECT_CALL	ACCESS:     648844  HIT:     648826  MISS:         18
BTB BRANCH_INDIRECT_CALL	ACCESS:      53834  HIT:      53826  MISS:          8
BTB BRANCH_RETURN	ACCESS:     702677  HIT:     507977  MISS:     194700
BTB BRANCH_OTHER ACCESS:          0  HIT:          0  MISS:          0

L2C TOTAL     ACCESS:   41291351  HIT:   15388976  MISS:   25902375  HIT %:    37.2692  MISS %:    62.7308   MPKI: 129.512
L2C LOAD      ACCESS:   21307887  HIT:    6585616  MISS:   14722271  HIT %:    30.9069  MISS %:    69.0931   MPKI: 73.6114
L2C DATA LOAD MPKI: 73.6114
L2C INSTRUCTION LOAD MPKI: 0
L2C RFO       ACCESS:      60515  HIT:      38933  MISS:      21582  HIT %:    64.3361  MISS %:    35.6639   MPKI: 0.10791
L2C PREFETCH  ACCESS:   15083281  HIT:    4007584  MISS:   11075697  HIT %:    26.5697  MISS %:    73.4303   MPKI: 55.3785
L2C DATA PREFETCH MPKI: 55.3785
L2C INSTRUCTION PREFETCH MPKI: 0
L2C WRITEBACK ACCESS:     503783  HIT:     498347  MISS:       5436  HIT %:     98.921  MISS %:    1.07904   MPKI: 0.02718
L2C LOAD TRANSLATION ACCESS:     240275  HIT:     185927  MISS:      54348  HIT %:    77.3809  MISS %:    22.6191   MPKI: 0.27174
L2C TRANSLATION FROM L1D PREFETCHER ACCESS:    4095610  HIT:    4072569  MISS:      23041  HIT %:    99.4374  MISS %:   0.562578   MPKI: 0.115205
L2C PREFETCH  REQUESTED:          0  ISSUED:          0  USEFUL:     920502  USELESS:   10178147
L2C USEFUL LOAD PREFETCHES:     920502 PREFETCH ISSUED TO LOWER LEVEL:   11285428  ACCURACY: 8.15655
L2C TIMELY PREFETCHES:     920502 LATE PREFETCHES: 209731 DROPPED PREFETCHES: 0
L2C PREFETCHES SAME FILL-ORIGIN LEVEL: 4910822 DIFFERENT FILL-ORIGIN LEVEL: 0
L2C AVERAGE MISS LATENCY: 95.2516 cycles
L2C RQ	ACCESS:   25704302	FORWARD:          0	MERGED:          0	TO_CACHE:   25704287
L2C WQ	ACCESS:     503783	FORWARD:         15	MERGED:          0	TO_CACHE:     503783
L2C PQ	ACCESS:   18442103	FORWARD:          0	MERGED:       8721	TO_CACHE:   18433382

L2C Instructions Evicting Data 0
L2C Translations Evicting Data 77227
L2C Data Evicting Data 25742337
L2C Instructions Evicting Instructions 0
L2C Translations Evicting Instructions 0
L2C Data Evicting Instructions 0
L2C Instructions Evicting Translations 0
L2C Translations Evicting Translations 162
L2C Data Evicting Translations 77213
L2C Dense regions hint from L2: 0
PSCL5 TOTAL     ACCESS:    4328185  HIT:    4328185  MISS:          0  HIT %:        100  MISS %:          0   MPKI: 0
PSCL5 LOAD TRANSLATION ACCESS:     237195  HIT:     237195  MISS:          0  HIT %:        100  MISS %:          0   MPKI: 0
PSCL5 TRANSLATION FROM L1D PREFETCHER ACCESS:    4090990  HIT:    4090990  MISS:          0  HIT %:        100  MISS %:          0   MPKI: 0
PSCL5 PREFETCH  REQUESTED:          0  ISSUED:          0  USEFUL:          0  USELESS:          0
PSCL5 USEFUL LOAD PREFETCHES:          0 PREFETCH ISSUED TO LOWER LEVEL:          0  ACCURACY: -nan
PSCL5 TIMELY PREFETCHES:          0 LATE PREFETCHES: 0 DROPPED PREFETCHES: 0
PSCL5 PREFETCHES SAME FILL-ORIGIN LEVEL: 0 DIFFERENT FILL-ORIGIN LEVEL: 0

PSCL4 TOTAL     ACCESS:    4328185  HIT:    4328185  MISS:          0  HIT %:        100  MISS %:          0   MPKI: 0
PSCL4 LOAD TRANSLATION ACCESS:     237195  HIT:     237195  MISS:          0  HIT %:        100  MISS %:          0   MPKI: 0
PSCL4 TRANSLATION FROM L1D PREFETCHER ACCESS:    4090990  HIT:    4090990  MISS:          0  HIT %:        100  MISS %:          0   MPKI: 0
PSCL4 PREFETCH  REQUESTED:          0  ISSUED:          0  USEFUL:          0  USELESS:          0
PSCL4 USEFUL LOAD PREFETCHES:          0 PREFETCH ISSUED TO LOWER LEVEL:          0  ACCURACY: -nan
PSCL4 TIMELY PREFETCHES:          0 LATE PREFETCHES: 0 DROPPED PREFETCHES: 0
PSCL4 PREFETCHES SAME FILL-ORIGIN LEVEL: 0 DIFFERENT FILL-ORIGIN LEVEL: 0

PSCL3 TOTAL     ACCESS:    4328185  HIT:    4328185  MISS:          0  HIT %:        100  MISS %:          0   MPKI: 0
PSCL3 LOAD TRANSLATION ACCESS:     237195  HIT:     237195  MISS:          0  HIT %:        100  MISS %:          0   MPKI: 0
PSCL3 TRANSLATION FROM L1D PREFETCHER ACCESS:    4090990  HIT:    4090990  MISS:          0  HIT %:        100  MISS %:          0   MPKI: 0
PSCL3 PREFETCH  REQUESTED:          0  ISSUED:          0  USEFUL:          0  USELESS:          0
PSCL3 USEFUL LOAD PREFETCHES:          0 PREFETCH ISSUED TO LOWER LEVEL:          0  ACCURACY: -nan
PSCL3 TIMELY PREFETCHES:          0 LATE PREFETCHES: 0 DROPPED PREFETCHES: 0
PSCL3 PREFETCHES SAME FILL-ORIGIN LEVEL: 0 DIFFERENT FILL-ORIGIN LEVEL: 0

PSCL2 TOTAL     ACCESS:    4318887  HIT:    4315360  MISS:       3527  HIT %:    99.9183  MISS %:  0.0816646   MPKI: 0.017635
PSCL2 LOAD TRANSLATION ACCESS:     237199  HIT:     233672  MISS:       3527  HIT %:    98.5131  MISS %:    1.48694   MPKI: 0.017635
PSCL2 TRANSLATION FROM L1D PREFETCHER ACCESS:    4081688  HIT:    4081688  MISS:          0  HIT %:        100  MISS %:          0   MPKI: 0
PSCL2 PREFETCH  REQUESTED:          0  ISSUED:          0  USEFUL:          0  USELESS:          0
PSCL2 USEFUL LOAD PREFETCHES:          0 PREFETCH ISSUED TO LOWER LEVEL:          0  ACCURACY: -nan
PSCL2 TIMELY PREFETCHES:          0 LATE PREFETCHES: 0 DROPPED PREFETCHES: 0
PSCL2 PREFETCHES SAME FILL-ORIGIN LEVEL: 0 DIFFERENT FILL-ORIGIN LEVEL: 0

LLC TOTAL     ACCESS:   26173745  HIT:   12460630  MISS:   13713115  HIT %:    47.6074  MISS %:    52.3926   MPKI: 68.5656
LLC LOAD      ACCESS:   14512533  HIT:   11596476  MISS:    2916057  HIT %:    79.9066  MISS %:    20.0934   MPKI: 14.5803
LLC RFO       ACCESS:      21582  HIT:      17550  MISS:       4032  HIT %:    81.3178  MISS %:    18.6822   MPKI: 0.02016
LLC PREFETCH  ACCESS:   11285428  HIT:     609051  MISS:   10676377  HIT %:    5.39679  MISS %:    94.6032   MPKI: 53.3819
LLC WRITEBACK ACCESS:     276813  HIT:     205526  MISS:      71287  HIT %:    74.2472  MISS %:    25.7528   MPKI: 0.356435
LLC LOAD TRANSLATION ACCESS:      54348  HIT:      31371  MISS:      22977  HIT %:    57.7225  MISS %:    42.2775   MPKI: 0.114885
LLC TRANSLATION FROM L1D PREFETCHER ACCESS:      23041  HIT:        656  MISS:      22385  HIT %:     2.8471  MISS %:    97.1529   MPKI: 0.111925
LLC PREFETCH  REQUESTED:          0  ISSUED:          0  USEFUL:       1925  USELESS:   10697494
LLC USEFUL LOAD PREFETCHES:       1925 PREFETCH ISSUED TO LOWER LEVEL:   10676377  ACCURACY: 0.0180305
LLC TIMELY PREFETCHES:       1925 LATE PREFETCHES: 0 DROPPED PREFETCHES: 0
LLC PREFETCHES SAME FILL-ORIGIN LEVEL: 0 DIFFERENT FILL-ORIGIN LEVEL: 0
LLC AVERAGE MISS LATENCY: 123.383 cycles
LLC RQ	ACCESS:   14611511	FORWARD:          0	MERGED:          0	TO_CACHE:   14611504
LLC WQ	ACCESS:     276813	FORWARD:          7	MERGED:          0	TO_CACHE:     276813
LLC PQ	ACCESS:   11285428	FORWARD:          0	MERGED:          0	TO_CACHE:   11285428

LLC Dense regions hint to LLC: 0

RAW hits: 477966
Loads Generated: 71752500
Loads sent to L1D: 71274533
Stores Generated: 3578449
Stores sent to L1D: 3578449
Major fault: 0 Minor fault: 219750
Allocated PAGES: 219750

DRAM Statistics
 CHANNEL 0
 RQ ROW_BUFFER_HIT:    9252614  ROW_BUFFER_MISS:    4389195
 DBUS_CONGESTED:       3161
 WQ ROW_BUFFER_HIT:      36555  ROW_BUFFER_MISS:      57956  FULL:          0

 AVG_CONGESTED_CYCLE: 4
 All warmup complete: 2
Channel 0 Bank busy for read cycles: 0
Channel 0 Bank busy for write cycles: 0
Channel 0
Rank 0
0banks busy for read cycles: 336249209
0banks busy for write cycles: 71112
1banks busy for read cycles: 228596669
1banks busy for write cycles: 16343323
2banks busy for read cycles: 114585039
2banks busy for write cycles: 1968255
3banks busy for read cycles: 58145633
3banks busy for write cycles: 426724
4banks busy for read cycles: 31038450
4banks busy for write cycles: 168299
5banks busy for read cycles: 20649531
5banks busy for write cycles: 95220
6banks busy for read cycles: 14617890
6banks busy for write cycles: 66189
7banks busy for read cycles: 10257904
7banks busy for write cycles: 55493
8banks busy for read cycles: 12751107
8banks busy for write cycles: 50946

CPU 0 Branch Prediction Accuracy: 96.7972% MPKI: 8.33592 Average ROB Occupancy at Mispredict: 54.57
Branch types
NOT_BRANCH: 138818908 69.4095%
BRANCH_DIRECT_JUMP: 7722186 3.86109%
BRANCH_INDIRECT: 0 0%
BRANCH_CONDITIONAL: 52053291 26.0266%
BRANCH_DIRECT_CALL: 648844 0.324422%
BRANCH_INDIRECT_CALL: 53834 0.026917%
BRANCH_RETURN: 702677 0.351338%
BRANCH_OTHER: 0 0%

DRAM PAGES: 1048576
Allocated PAGES: 219750
