
*** ChampSim Multicore Out-of-Order Simulator ***

Warmup Instructions: 50000000
Simulation Instructions: 200000000
Number of CPUs: 1
LLC sets: 2048
LLC ways: 16
Off-chip DRAM Size: 4096 MB Channels: 1 Width: 64-bit Data Rate: 6400 MT/s
argv[0]: ./ChampSim/Berti/bin/multiperspective_perceptron8kb-no-vberti-no-no-no-no-no-lru-lru-lru-srrip-drrip-lru-lru-lru-1core-no
argv[1]: -warmup_instructions
argv[2]: 50000000
argv[3]: -simulation_instructions
argv[4]: 200000000
argv[5]: -traces
argv[6]: traces/spec2k17_ten/602.gcc_s-2226B.champsimtrace.xz
CPU 0 runs traces/spec2k17_ten/602.gcc_s-2226B.champsimtrace.xz
.xz
CPU 0 Multiperspective perceptron branch predictor
BTB has LRU replacement policy
ITLB has LRU replacement policy
DTLB has LRU replacement policy
STLB has LRU replacement policy
L1I has LRU replacement policy
History Sets: 8
History Ways: 16
BERTI Size: 16
BERTI Stride Size: 16
L1D has LRU replacement policy
Initialize SRRIP state for L2C
Initialize DRRIP state for LLC
Heartbeat CPU 0 instructions: 10000002 cycles: 3740901 heartbeat IPC: 2.67315 cumulative IPC: 2.67315 (Simulation time: 0 hr 9 min 33 sec) 
Heartbeat CPU 0 instructions: 20000001 cycles: 7483280 heartbeat IPC: 2.6721 cumulative IPC: 2.67263 (Simulation time: 0 hr 15 min 49 sec) 
Heartbeat CPU 0 instructions: 30000001 cycles: 11220200 heartbeat IPC: 2.676 cumulative IPC: 2.67375 (Simulation time: 0 hr 23 min 50 sec) 
Heartbeat CPU 0 instructions: 40000002 cycles: 14954909 heartbeat IPC: 2.67759 cumulative IPC: 2.67471 (Simulation time: 0 hr 32 min 24 sec) 
Heartbeat CPU 0 instructions: 50000000 cycles: 18688959 heartbeat IPC: 2.67806 cumulative IPC: 2.67538 (Simulation time: 0 hr 40 min 21 sec) 

Warmup complete CPU 0 instructions: 50000004 cycles: 18688960 (Simulation time: 0 hr 40 min 21 sec) 

Heartbeat CPU 0 instructions: 60000001 cycles: 43646258 heartbeat IPC: 0.400684 cumulative IPC: 0.400684 (Simulation time: 0 hr 50 min 48 sec) 
Heartbeat CPU 0 instructions: 70000000 cycles: 68484784 heartbeat IPC: 0.4026 cumulative IPC: 0.40164 (Simulation time: 1 hr 4 min 14 sec) 
Heartbeat CPU 0 instructions: 80000000 cycles: 93326869 heartbeat IPC: 0.402543 cumulative IPC: 0.40194 (Simulation time: 1 hr 16 min 27 sec) 
Heartbeat CPU 0 instructions: 90000001 cycles: 118248449 heartbeat IPC: 0.401259 cumulative IPC: 0.40177 (Simulation time: 1 hr 27 min 59 sec) 
Heartbeat CPU 0 instructions: 100000001 cycles: 143109067 heartbeat IPC: 0.402243 cumulative IPC: 0.401864 (Simulation time: 1 hr 36 min 36 sec) 
Heartbeat CPU 0 instructions: 110000000 cycles: 167862740 heartbeat IPC: 0.40398 cumulative IPC: 0.402215 (Simulation time: 1 hr 44 min 48 sec) 
Heartbeat CPU 0 instructions: 120000000 cycles: 192913154 heartbeat IPC: 0.399195 cumulative IPC: 0.401781 (Simulation time: 1 hr 52 min 36 sec) 
Heartbeat CPU 0 instructions: 130000001 cycles: 217834626 heartbeat IPC: 0.40126 cumulative IPC: 0.401716 (Simulation time: 1 hr 59 min 52 sec) 
Heartbeat CPU 0 instructions: 140000000 cycles: 242667091 heartbeat IPC: 0.402699 cumulative IPC: 0.401825 (Simulation time: 2 hr 10 min 13 sec) 
Heartbeat CPU 0 instructions: 150000001 cycles: 267478610 heartbeat IPC: 0.403039 cumulative IPC: 0.401946 (Simulation time: 2 hr 21 min 25 sec) 
Heartbeat CPU 0 instructions: 160000002 cycles: 292438485 heartbeat IPC: 0.400643 cumulative IPC: 0.401827 (Simulation time: 2 hr 32 min 56 sec) 
Heartbeat CPU 0 instructions: 170000001 cycles: 317532537 heartbeat IPC: 0.398501 cumulative IPC: 0.401548 (Simulation time: 2 hr 43 min 16 sec) 
Heartbeat CPU 0 instructions: 180000000 cycles: 342204658 heartbeat IPC: 0.405316 cumulative IPC: 0.401835 (Simulation time: 2 hr 53 min 42 sec) 
Heartbeat CPU 0 instructions: 190000002 cycles: 367219932 heartbeat IPC: 0.399756 cumulative IPC: 0.401686 (Simulation time: 3 hr 4 min 8 sec) 
Heartbeat CPU 0 instructions: 200000000 cycles: 392127822 heartbeat IPC: 0.401479 cumulative IPC: 0.401672 (Simulation time: 3 hr 13 min 2 sec) 
Heartbeat CPU 0 instructions: 210000003 cycles: 417012917 heartbeat IPC: 0.401847 cumulative IPC: 0.401683 (Simulation time: 3 hr 19 min 50 sec) 
Heartbeat CPU 0 instructions: 220000000 cycles: 441843509 heartbeat IPC: 0.402729 cumulative IPC: 0.401744 (Simulation time: 3 hr 24 min 28 sec) 
Heartbeat CPU 0 instructions: 230000001 cycles: 466785771 heartbeat IPC: 0.400926 cumulative IPC: 0.401699 (Simulation time: 3 hr 28 min 6 sec) 
Heartbeat CPU 0 instructions: 240000001 cycles: 491724403 heartbeat IPC: 0.400984 cumulative IPC: 0.401661 (Simulation time: 3 hr 33 min 28 sec) 
Heartbeat CPU 0 instructions: 250000000 cycles: 516666385 heartbeat IPC: 0.40093 cumulative IPC: 0.401625 (Simulation time: 3 hr 36 min 53 sec) 
Finished CPU 0 instructions: 200000000 cycles: 497977426 cumulative IPC: 0.401625 (Simulation time: 3 hr 36 min 53 sec) 

ChampSim completed all CPUs

Region of Interest Statistics

CPU 0 cumulative IPC: 0.401625 instructions: 200000000 cycles: 497977426
ITLB TOTAL     ACCESS:   36238123  HIT:   36238123  MISS:          0  HIT %:        100  MISS %:          0   MPKI: 0
ITLB LOAD TRANSLATION ACCESS:   36238123  HIT:   36238123  MISS:          0  HIT %:        100  MISS %:          0   MPKI: 0
ITLB PREFETCH  REQUESTED:          0  ISSUED:          0  USEFUL:          0  USELESS:          0
ITLB USEFUL LOAD PREFETCHES:          0 PREFETCH ISSUED TO LOWER LEVEL:          0  ACCURACY: -nan
ITLB TIMELY PREFETCHES:          0 LATE PREFETCHES: 0 DROPPED PREFETCHES: 0
ITLB PREFETCHES SAME FILL-ORIGIN LEVEL: 0 DIFFERENT FILL-ORIGIN LEVEL: 0
ITLB AVERAGE MISS LATENCY: -nan cycles
ITLB RQ	ACCESS:   37301105	FORWARD:          0	MERGED:    1062982	TO_CACHE:   36238123

DTLB TOTAL     ACCESS:   30571170  HIT:   30297684  MISS:     273486  HIT %:    99.1054  MISS %:   0.894588   MPKI: 1.36743
DTLB LOAD TRANSLATION ACCESS:   30571170  HIT:   30297684  MISS:     273486  HIT %:    99.1054  MISS %:   0.894588   MPKI: 1.36743
DTLB PREFETCH  REQUESTED:          0  ISSUED:          0  USEFUL:          0  USELESS:          0
DTLB USEFUL LOAD PREFETCHES:          0 PREFETCH ISSUED TO LOWER LEVEL:          0  ACCURACY: -nan
DTLB TIMELY PREFETCHES:          0 LATE PREFETCHES: 0 DROPPED PREFETCHES: 0
DTLB PREFETCHES SAME FILL-ORIGIN LEVEL: 0 DIFFERENT FILL-ORIGIN LEVEL: 0
DTLB AVERAGE MISS LATENCY: 28.0794 cycles
DTLB RQ	ACCESS:   36061401	FORWARD:          0	MERGED:    5490104	TO_CACHE:   30571297

STLB TOTAL     ACCESS:   27268132  HIT:   27004191  MISS:     263941  HIT %:    99.0321  MISS %:   0.967947   MPKI: 1.3197
STLB LOAD TRANSLATION ACCESS:     273486  HIT:     233248  MISS:      40238  HIT %:     85.287  MISS %:     14.713   MPKI: 0.20119
STLB TRANSLATION FROM L1D PREFETCHER ACCESS:   26994646  HIT:   26770943  MISS:     223703  HIT %:    99.1713  MISS %:   0.828694   MPKI: 1.11851
STLB PREFETCH  REQUESTED:          0  ISSUED:          0  USEFUL:     223573  USELESS:        129
STLB USEFUL LOAD PREFETCHES:     223573 PREFETCH ISSUED TO LOWER LEVEL:          0  ACCURACY: inf
STLB TIMELY PREFETCHES:     223573 LATE PREFETCHES: 161 DROPPED PREFETCHES: 2453429
STLB PREFETCHES SAME FILL-ORIGIN LEVEL: 0 DIFFERENT FILL-ORIGIN LEVEL: 0
STLB AVERAGE MISS LATENCY: 66.7595 cycles
STLB RQ	ACCESS:  131103537	FORWARD:          0	MERGED:  101257240	TO_CACHE:   29846297

STLB Hit, L1D data hit: 0
STLB Hit, L2C data hit: 0
STLB Hit, LLC data hit: 0
STLB Hit, LLC data miss: 0
STLB STLB hints to L2: 0
L1D TOTAL     ACCESS:  127144417  HIT:  112675084  MISS:   14469333  HIT %:    88.6198  MISS %:    11.3802   MPKI: 72.3467
L1D LOAD      ACCESS:   32349944  HIT:   29365562  MISS:    2984382  HIT %:    90.7747  MISS %:    9.22531   MPKI: 14.9219
L1D RFO       ACCESS:    2659788  HIT:    2654310  MISS:       5478  HIT %:     99.794  MISS %:   0.205956   MPKI: 0.02739
L1D PREFETCH  ACCESS:   92134685  HIT:   80655212  MISS:   11479473  HIT %:    87.5406  MISS %:    12.4594   MPKI: 57.3974
L1D PREFETCH  REQUESTED:  315743656  ISSUED:  311641781  USEFUL:   11020177  USELESS:     459284
L1D USEFUL LOAD PREFETCHES:   11020177 PREFETCH ISSUED TO LOWER LEVEL:   40675102  ACCURACY: 27.0932
L1D TIMELY PREFETCHES:   11020177 LATE PREFETCHES: 188818 DROPPED PREFETCHES: 2603828
L1D PREFETCHES SAME FILL-ORIGIN LEVEL: 11671648 DIFFERENT FILL-ORIGIN LEVEL: 29003454
L1D AVERAGE MISS LATENCY: 65.493 cycles
L1D RQ	ACCESS:   71767387	FORWARD:          0	MERGED:   38357985	TO_CACHE:   33401586
L1D WQ	ACCESS:    2952864	FORWARD:       7816	MERGED:     293049	TO_CACHE:    2659815
L1D PQ	ACCESS:  180811730	FORWARD:          0	MERGED:   49981679	TO_CACHE:  130830051

L1D UNIQUE REGIONS ACCESSED: 0
L1D REGIONS CONFLICTS: 0
L1D Cross Page Prefetch Requests: 33088591
L1D Same Page Prefetch Requests: 183645184
L1D ROI Sum of L1D PQ occupancy: 2398436914
L1D PREFETCHES PUSHED FROM L2C: 0
L1I TOTAL     ACCESS:   37301101  HIT:   37301076  MISS:         25  HIT %:    99.9999  MISS %: 6.70222e-05   MPKI: 0.000125
L1I LOAD      ACCESS:   37301101  HIT:   37301076  MISS:         25  HIT %:    99.9999  MISS %: 6.70222e-05   MPKI: 0.000125
L1I PREFETCH  REQUESTED:          0  ISSUED:          0  USEFUL:          0  USELESS:          0
L1I USEFUL LOAD PREFETCHES:          0 PREFETCH ISSUED TO LOWER LEVEL:          0  ACCURACY: -nan
L1I TIMELY PREFETCHES:          0 LATE PREFETCHES: 0 DROPPED PREFETCHES: 0
L1I PREFETCHES SAME FILL-ORIGIN LEVEL: 0 DIFFERENT FILL-ORIGIN LEVEL: 0
L1I AVERAGE MISS LATENCY: 210 cycles
L1I RQ	ACCESS:   56083007	FORWARD:          0	MERGED:   18781902	TO_CACHE:   37301105

BTB TOTAL     ACCESS:   47939709  HIT:   47938647  MISS:       1062  HIT %:    99.9978  MISS %: 0.00221528   MPKI: 0.00531
BTB BRANCH_DIRECT_JUMP	ACCESS:     685292  HIT:     685256  MISS:         36
BTB BRANCH_INDIRECT	ACCESS:          0  HIT:          0  MISS:          0
BTB BRANCH_CONDITIONAL	ACCESS:   46577615  HIT:   46577537  MISS:         78
BTB BRANCH_DIRECT_CALL	ACCESS:     338401  HIT:     338385  MISS:         16
BTB BRANCH_INDIRECT_CALL	ACCESS:          0  HIT:          0  MISS:          0
BTB BRANCH_RETURN	ACCESS:     338401  HIT:     337469  MISS:        932
BTB BRANCH_OTHER ACCESS:          0  HIT:          0  MISS:          0

L2C TOTAL     ACCESS:   40525233  HIT:   25746831  MISS:   14778402  HIT %:    63.5328  MISS %:    36.4672   MPKI: 73.892
L2C LOAD      ACCESS:    2795580  HIT:    2464076  MISS:     331504  HIT %:    88.1419  MISS %:    11.8581   MPKI: 1.65752
L2C DATA LOAD MPKI: 1.65739
L2C INSTRUCTION LOAD MPKI: 0.000125
L2C RFO       ACCESS:       5478  HIT:        980  MISS:       4498  HIT %:    17.8897  MISS %:    82.1103   MPKI: 0.02249
L2C PREFETCH  ACCESS:   34950113  HIT:   20584349  MISS:   14365764  HIT %:    58.8964  MISS %:    41.1036   MPKI: 71.8288
L2C DATA PREFETCH MPKI: 71.8288
L2C INSTRUCTION PREFETCH MPKI: 0
L2C WRITEBACK ACCESS:      23230  HIT:      22317  MISS:        913  HIT %:    96.0697  MISS %:    3.93026   MPKI: 0.004565
L2C LOAD TRANSLATION ACCESS:      45677  HIT:      15501  MISS:      30176  HIT %:    33.9361  MISS %:    66.0639   MPKI: 0.15088
L2C TRANSLATION FROM L1D PREFETCHER ACCESS:    2705155  HIT:    2659608  MISS:      45547  HIT %:    98.3163  MISS %:    1.68371   MPKI: 0.227735
L2C PREFETCH  REQUESTED:          0  ISSUED:          0  USEFUL:    2494307  USELESS:   11918783
L2C USEFUL LOAD PREFETCHES:    2494307 PREFETCH ISSUED TO LOWER LEVEL:   14535903  ACCURACY: 17.1596
L2C TIMELY PREFETCHES:    2494307 LATE PREFETCHES: 170137 DROPPED PREFETCHES: 0
L2C PREFETCHES SAME FILL-ORIGIN LEVEL: 8974389 DIFFERENT FILL-ORIGIN LEVEL: 0
L2C AVERAGE MISS LATENCY: 132.282 cycles
L2C RQ	ACCESS:    5551899	FORWARD:          0	MERGED:          0	TO_CACHE:    5551890
L2C WQ	ACCESS:      23230	FORWARD:          9	MERGED:          0	TO_CACHE:      23230
L2C PQ	ACCESS:   40645321	FORWARD:          0	MERGED:      12362	TO_CACHE:   40632959

L2C Instructions Evicting Data 25
L2C Translations Evicting Data 75268
L2C Data Evicting Data 14626436
L2C Instructions Evicting Instructions 0
L2C Translations Evicting Instructions 0
L2C Data Evicting Instructions 25
L2C Instructions Evicting Translations 0
L2C Translations Evicting Translations 455
L2C Data Evicting Translations 75280
L2C Dense regions hint from L2: 0
PSCL5 TOTAL     ACCESS:    2717401  HIT:    2717401  MISS:          0  HIT %:        100  MISS %:          0   MPKI: 0
PSCL5 LOAD TRANSLATION ACCESS:      40107  HIT:      40107  MISS:          0  HIT %:        100  MISS %:          0   MPKI: 0
PSCL5 TRANSLATION FROM L1D PREFETCHER ACCESS:    2677294  HIT:    2677294  MISS:          0  HIT %:        100  MISS %:          0   MPKI: 0
PSCL5 PREFETCH  REQUESTED:          0  ISSUED:          0  USEFUL:          0  USELESS:          0
PSCL5 USEFUL LOAD PREFETCHES:          0 PREFETCH ISSUED TO LOWER LEVEL:          0  ACCURACY: -nan
PSCL5 TIMELY PREFETCHES:          0 LATE PREFETCHES: 0 DROPPED PREFETCHES: 0
PSCL5 PREFETCHES SAME FILL-ORIGIN LEVEL: 0 DIFFERENT FILL-ORIGIN LEVEL: 0

PSCL4 TOTAL     ACCESS:    2717401  HIT:    2717401  MISS:          0  HIT %:        100  MISS %:          0   MPKI: 0
PSCL4 LOAD TRANSLATION ACCESS:      40107  HIT:      40107  MISS:          0  HIT %:        100  MISS %:          0   MPKI: 0
PSCL4 TRANSLATION FROM L1D PREFETCHER ACCESS:    2677294  HIT:    2677294  MISS:          0  HIT %:        100  MISS %:          0   MPKI: 0
PSCL4 PREFETCH  REQUESTED:          0  ISSUED:          0  USEFUL:          0  USELESS:          0
PSCL4 USEFUL LOAD PREFETCHES:          0 PREFETCH ISSUED TO LOWER LEVEL:          0  ACCURACY: -nan
PSCL4 TIMELY PREFETCHES:          0 LATE PREFETCHES: 0 DROPPED PREFETCHES: 0
PSCL4 PREFETCHES SAME FILL-ORIGIN LEVEL: 0 DIFFERENT FILL-ORIGIN LEVEL: 0

PSCL3 TOTAL     ACCESS:    2717398  HIT:    2717371  MISS:         27  HIT %:     99.999  MISS %: 0.000993598   MPKI: 0.000135
PSCL3 LOAD TRANSLATION ACCESS:      40109  HIT:      40082  MISS:         27  HIT %:    99.9327  MISS %:  0.0673166   MPKI: 0.000135
PSCL3 TRANSLATION FROM L1D PREFETCHER ACCESS:    2677289  HIT:    2677289  MISS:          0  HIT %:        100  MISS %:          0   MPKI: 0
PSCL3 PREFETCH  REQUESTED:          0  ISSUED:          0  USEFUL:          0  USELESS:          0
PSCL3 USEFUL LOAD PREFETCHES:          0 PREFETCH ISSUED TO LOWER LEVEL:          0  ACCURACY: -nan
PSCL3 TIMELY PREFETCHES:          0 LATE PREFETCHES: 0 DROPPED PREFETCHES: 0
PSCL3 PREFETCHES SAME FILL-ORIGIN LEVEL: 0 DIFFERENT FILL-ORIGIN LEVEL: 0

PSCL2 TOTAL     ACCESS:    2687928  HIT:    2681706  MISS:       6222  HIT %:    99.7685  MISS %:   0.231479   MPKI: 0.03111
PSCL2 LOAD TRANSLATION ACCESS:      40774  HIT:      34552  MISS:       6222  HIT %:    84.7403  MISS %:    15.2597   MPKI: 0.03111
PSCL2 TRANSLATION FROM L1D PREFETCHER ACCESS:    2647154  HIT:    2647154  MISS:          0  HIT %:        100  MISS %:          0   MPKI: 0
PSCL2 PREFETCH  REQUESTED:          0  ISSUED:          0  USEFUL:          0  USELESS:          0
PSCL2 USEFUL LOAD PREFETCHES:          0 PREFETCH ISSUED TO LOWER LEVEL:          0  ACCURACY: -nan
PSCL2 TIMELY PREFETCHES:          0 LATE PREFETCHES: 0 DROPPED PREFETCHES: 0
PSCL2 PREFETCHES SAME FILL-ORIGIN LEVEL: 0 DIFFERENT FILL-ORIGIN LEVEL: 0

LLC TOTAL     ACCESS:   14800150  HIT:     104741  MISS:   14695409  HIT %:   0.707702  MISS %:    99.2923   MPKI: 73.477
LLC LOAD      ACCESS:     161367  HIT:       6235  MISS:     155132  HIT %:    3.86386  MISS %:    96.1361   MPKI: 0.77566
LLC RFO       ACCESS:       4498  HIT:         43  MISS:       4455  HIT %:    0.95598  MISS %:     99.044   MPKI: 0.022275
LLC PREFETCH  ACCESS:   14535901  HIT:      70960  MISS:   14464941  HIT %:   0.488171  MISS %:    99.5118   MPKI: 72.3247
LLC WRITEBACK ACCESS:      22661  HIT:      22185  MISS:        476  HIT %:    97.8995  MISS %:    2.10053   MPKI: 0.00238
LLC LOAD TRANSLATION ACCESS:      30176  HIT:       3014  MISS:      27162  HIT %:    9.98807  MISS %:    90.0119   MPKI: 0.13581
LLC TRANSLATION FROM L1D PREFETCHER ACCESS:      45547  HIT:       2304  MISS:      43243  HIT %:    5.05851  MISS %:    94.9415   MPKI: 0.216215
LLC PREFETCH  REQUESTED:          0  ISSUED:          0  USEFUL:       2694  USELESS:   14505024
LLC USEFUL LOAD PREFETCHES:       2694 PREFETCH ISSUED TO LOWER LEVEL:   14464942  ACCURACY: 0.0186243
LLC TIMELY PREFETCHES:       2694 LATE PREFETCHES: 0 DROPPED PREFETCHES: 0
LLC PREFETCHES SAME FILL-ORIGIN LEVEL: 0 DIFFERENT FILL-ORIGIN LEVEL: 0
LLC AVERAGE MISS LATENCY: 103.867 cycles
LLC RQ	ACCESS:     241588	FORWARD:          0	MERGED:          0	TO_CACHE:     241588
LLC WQ	ACCESS:      22661	FORWARD:          0	MERGED:          0	TO_CACHE:      22661
LLC PQ	ACCESS:   14535903	FORWARD:          0	MERGED:          0	TO_CACHE:   14535903

LLC Dense regions hint to LLC: 0

RAW hits: 20177
Loads Generated: 71787567
Loads sent to L1D: 71767387
Stores Generated: 2952864
Stores sent to L1D: 2952864
Major fault: 0 Minor fault: 49083
Allocated PAGES: 49083

DRAM Statistics
 CHANNEL 0
 RQ ROW_BUFFER_HIT:   11535612  ROW_BUFFER_MISS:    3159322
 DBUS_CONGESTED:      14064
 WQ ROW_BUFFER_HIT:       3126  ROW_BUFFER_MISS:      19468  FULL:          0

 AVG_CONGESTED_CYCLE: 4
 All warmup complete: 2
Channel 0 Bank busy for read cycles: 0
Channel 0 Bank busy for write cycles: 0
Channel 0
Rank 0
0banks busy for read cycles: 73921899
0banks busy for write cycles: 14764
1banks busy for read cycles: 122932748
1banks busy for write cycles: 4785710
2banks busy for read cycles: 127394410
2banks busy for write cycles: 1478379
3banks busy for read cycles: 76732053
3banks busy for write cycles: 482785
4banks busy for read cycles: 42387541
4banks busy for write cycles: 149095
5banks busy for read cycles: 25259824
5banks busy for write cycles: 38315
6banks busy for read cycles: 13185593
6banks busy for write cycles: 7792
7banks busy for read cycles: 5727510
7banks busy for write cycles: 1226
8banks busy for read cycles: 3477244
8banks busy for write cycles: 539

CPU 0 Branch Prediction Accuracy: 99.5934% MPKI: 1.42145 Average ROB Occupancy at Mispredict: 208.48
Branch types
NOT_BRANCH: 128713628 64.3568%
BRANCH_DIRECT_JUMP: 685292 0.342646%
BRANCH_INDIRECT: 0 0%
BRANCH_CONDITIONAL: 69924204 34.9621%
BRANCH_DIRECT_CALL: 338401 0.169201%
BRANCH_INDIRECT_CALL: 0 0%
BRANCH_RETURN: 338401 0.169201%
BRANCH_OTHER: 0 0%

DRAM PAGES: 1048576
Allocated PAGES: 49083
