 (TOTAL 523355 bits 511 Kbits) 
*** ChampSim Multicore Out-of-Order Simulator ***

Warmup Instructions: 50000000
Simulation Instructions: 200000000
Number of CPUs: 1
LLC sets: 2048
LLC ways: 16
Off-chip DRAM Size: 4096 MB Channels: 1 Width: 64-bit Data Rate: 6400 MT/s
argv[0]: ./ChampSim/Berti/bin/tagescl-no-vberti-no-no-no-no-no-lru-lru-lru-srrip-drrip-lru-lru-lru-1core-no
argv[1]: -warmup_instructions
argv[2]: 50000000
argv[3]: -simulation_instructions
argv[4]: 200000000
argv[5]: -traces
argv[6]: traces/spec2k17_ten/648.exchange2_s-1227B.champsimtrace.xz
CPU 0 runs traces/spec2k17_ten/648.exchange2_s-1227B.champsimtrace.xz
.xz
CPU 0 Tage branch predictor
BTB has LRU replacement policy
ITLB has LRU replacement policy
DTLB has LRU replacement policy
STLB has LRU replacement policy
L1I has LRU replacement policy
History Sets: 8
History Ways: 16
BERTI Size: 16
BERTI Stride Size: 16
L1D has LRU replacement policy
Initialize SRRIP state for L2C
Initialize DRRIP state for LLC
Heartbeat CPU 0 instructions: 10000001 cycles: 2721243 heartbeat IPC: 3.67479 cumulative IPC: 3.67479 (Simulation time: 0 hr 4 min 19 sec) 
Heartbeat CPU 0 instructions: 20000003 cycles: 5456388 heartbeat IPC: 3.65611 cumulative IPC: 3.66543 (Simulation time: 0 hr 10 min 12 sec) 
Heartbeat CPU 0 instructions: 30000002 cycles: 8137594 heartbeat IPC: 3.72966 cumulative IPC: 3.68659 (Simulation time: 0 hr 15 min 48 sec) 
Heartbeat CPU 0 instructions: 40000001 cycles: 10841930 heartbeat IPC: 3.69777 cumulative IPC: 3.68938 (Simulation time: 0 hr 20 min 11 sec) 
Heartbeat CPU 0 instructions: 50000001 cycles: 13507594 heartbeat IPC: 3.75141 cumulative IPC: 3.70162 (Simulation time: 0 hr 23 min 58 sec) 

Warmup complete CPU 0 instructions: 50000001 cycles: 13507594 (Simulation time: 0 hr 23 min 58 sec) 

Heartbeat CPU 0 instructions: 60000002 cycles: 24386710 heartbeat IPC: 0.919192 cumulative IPC: 0.919192 (Simulation time: 0 hr 29 min 51 sec) 
Heartbeat CPU 0 instructions: 70000002 cycles: 33398795 heartbeat IPC: 1.10962 cumulative IPC: 1.00547 (Simulation time: 0 hr 35 min 23 sec) 
Heartbeat CPU 0 instructions: 80000001 cycles: 42344539 heartbeat IPC: 1.11785 cumulative IPC: 1.04033 (Simulation time: 0 hr 40 min 47 sec) 
Heartbeat CPU 0 instructions: 90000000 cycles: 51244338 heartbeat IPC: 1.12362 cumulative IPC: 1.05997 (Simulation time: 0 hr 45 min 57 sec) 
Heartbeat CPU 0 instructions: 100000002 cycles: 60173970 heartbeat IPC: 1.11987 cumulative IPC: 1.07144 (Simulation time: 0 hr 52 min 15 sec) 
Heartbeat CPU 0 instructions: 110000000 cycles: 69066072 heartbeat IPC: 1.12459 cumulative IPC: 1.07994 (Simulation time: 0 hr 57 min 56 sec) 
Heartbeat CPU 0 instructions: 120000003 cycles: 78043794 heartbeat IPC: 1.11387 cumulative IPC: 1.08466 (Simulation time: 1 hr 3 min 6 sec) 
Heartbeat CPU 0 instructions: 130000000 cycles: 86986995 heartbeat IPC: 1.11817 cumulative IPC: 1.08874 (Simulation time: 1 hr 8 min 58 sec) 
Heartbeat CPU 0 instructions: 140000000 cycles: 95869537 heartbeat IPC: 1.1258 cumulative IPC: 1.09274 (Simulation time: 1 hr 14 min 31 sec) 
Heartbeat CPU 0 instructions: 150000000 cycles: 105867992 heartbeat IPC: 1.00015 cumulative IPC: 1.08272 (Simulation time: 1 hr 18 min 11 sec) 
Heartbeat CPU 0 instructions: 160000003 cycles: 117862819 heartbeat IPC: 0.833693 cumulative IPC: 1.05409 (Simulation time: 1 hr 20 min 24 sec) 
Heartbeat CPU 0 instructions: 170000000 cycles: 129102595 heartbeat IPC: 0.889697 cumulative IPC: 1.03811 (Simulation time: 1 hr 22 min 9 sec) 
Heartbeat CPU 0 instructions: 180000003 cycles: 137941746 heartbeat IPC: 1.13133 cumulative IPC: 1.04473 (Simulation time: 1 hr 25 min 24 sec) 
Heartbeat CPU 0 instructions: 190000003 cycles: 146642832 heartbeat IPC: 1.14928 cumulative IPC: 1.05156 (Simulation time: 1 hr 28 min 26 sec) 
Heartbeat CPU 0 instructions: 200000003 cycles: 155327786 heartbeat IPC: 1.15142 cumulative IPC: 1.05768 (Simulation time: 1 hr 31 min 12 sec) 
Heartbeat CPU 0 instructions: 210000000 cycles: 164125177 heartbeat IPC: 1.1367 cumulative IPC: 1.06229 (Simulation time: 1 hr 33 min 55 sec) 
Heartbeat CPU 0 instructions: 220000000 cycles: 176073720 heartbeat IPC: 0.836922 cumulative IPC: 1.04573 (Simulation time: 1 hr 37 min 59 sec) 
Heartbeat CPU 0 instructions: 230000001 cycles: 187784758 heartbeat IPC: 0.853895 cumulative IPC: 1.03284 (Simulation time: 1 hr 41 min 52 sec) 
Heartbeat CPU 0 instructions: 240000003 cycles: 198067078 heartbeat IPC: 0.972543 cumulative IPC: 1.02948 (Simulation time: 1 hr 45 min 5 sec) 
Heartbeat CPU 0 instructions: 250000001 cycles: 208298024 heartbeat IPC: 0.977427 cumulative IPC: 1.02674 (Simulation time: 1 hr 47 min 59 sec) 
Finished CPU 0 instructions: 200000000 cycles: 194790430 cumulative IPC: 1.02674 (Simulation time: 1 hr 47 min 59 sec) 

ChampSim completed all CPUs

Region of Interest Statistics

CPU 0 cumulative IPC: 1.02674 instructions: 200000000 cycles: 194790430
ITLB TOTAL     ACCESS:   30273040  HIT:   30273040  MISS:          0  HIT %:        100  MISS %:          0   MPKI: 0
ITLB LOAD TRANSLATION ACCESS:   30273040  HIT:   30273040  MISS:          0  HIT %:        100  MISS %:          0   MPKI: 0
ITLB PREFETCH  REQUESTED:          0  ISSUED:          0  USEFUL:          0  USELESS:          0
ITLB USEFUL LOAD PREFETCHES:          0 PREFETCH ISSUED TO LOWER LEVEL:          0  ACCURACY: -nan
ITLB TIMELY PREFETCHES:          0 LATE PREFETCHES: 0 DROPPED PREFETCHES: 0
ITLB PREFETCHES SAME FILL-ORIGIN LEVEL: 0 DIFFERENT FILL-ORIGIN LEVEL: 0
ITLB AVERAGE MISS LATENCY: -nan cycles
ITLB RQ	ACCESS:   36612596	FORWARD:          0	MERGED:    6339557	TO_CACHE:   30273039

DTLB TOTAL     ACCESS:   34652644  HIT:   34652644  MISS:          0  HIT %:        100  MISS %:          0   MPKI: 0
DTLB LOAD TRANSLATION ACCESS:   34652644  HIT:   34652644  MISS:          0  HIT %:        100  MISS %:          0   MPKI: 0
DTLB PREFETCH  REQUESTED:          0  ISSUED:          0  USEFUL:          0  USELESS:          0
DTLB USEFUL LOAD PREFETCHES:          0 PREFETCH ISSUED TO LOWER LEVEL:          0  ACCURACY: -nan
DTLB TIMELY PREFETCHES:          0 LATE PREFETCHES: 0 DROPPED PREFETCHES: 0
DTLB PREFETCHES SAME FILL-ORIGIN LEVEL: 0 DIFFERENT FILL-ORIGIN LEVEL: 0
DTLB AVERAGE MISS LATENCY: -nan cycles
DTLB RQ	ACCESS:   54738706	FORWARD:          0	MERGED:   20086061	TO_CACHE:   34652645

STLB TOTAL     ACCESS:     618588  HIT:     618588  MISS:          0  HIT %:        100  MISS %:          0   MPKI: 0
STLB TRANSLATION FROM L1D PREFETCHER ACCESS:     618588  HIT:     618588  MISS:          0  HIT %:        100  MISS %:          0   MPKI: 0
STLB PREFETCH  REQUESTED:          0  ISSUED:          0  USEFUL:          0  USELESS:          0
STLB USEFUL LOAD PREFETCHES:          0 PREFETCH ISSUED TO LOWER LEVEL:          0  ACCURACY: -nan
STLB TIMELY PREFETCHES:          0 LATE PREFETCHES: 0 DROPPED PREFETCHES: 0
STLB PREFETCHES SAME FILL-ORIGIN LEVEL: 0 DIFFERENT FILL-ORIGIN LEVEL: 0
STLB AVERAGE MISS LATENCY: -nan cycles
STLB RQ	ACCESS:    2027212	FORWARD:          0	MERGED:    1408624	TO_CACHE:     618588

STLB Hit, L1D data hit: 0
STLB Hit, L2C data hit: 0
STLB Hit, LLC data hit: 0
STLB Hit, LLC data miss: 0
STLB STLB hints to L2: 0
L1D TOTAL     ACCESS:   56687322  HIT:   56687311  MISS:         11  HIT %:        100  MISS %: 1.94047e-05   MPKI: 5.5e-05
L1D LOAD      ACCESS:   25777369  HIT:   25777358  MISS:         11  HIT %:        100  MISS %: 4.26731e-05   MPKI: 5.5e-05
L1D RFO       ACCESS:   28961338  HIT:   28961338  MISS:          0  HIT %:        100  MISS %:          0   MPKI: 0
L1D PREFETCH  ACCESS:    1948615  HIT:    1948615  MISS:          0  HIT %:        100  MISS %:          0   MPKI: 0
L1D PREFETCH  REQUESTED:    5011540  ISSUED:    4960503  USEFUL:          0  USELESS:          0
L1D USEFUL LOAD PREFETCHES:          0 PREFETCH ISSUED TO LOWER LEVEL:      78597  ACCURACY: 0
L1D TIMELY PREFETCHES:          0 LATE PREFETCHES: 0 DROPPED PREFETCHES: 0
L1D PREFETCHES SAME FILL-ORIGIN LEVEL: 0 DIFFERENT FILL-ORIGIN LEVEL: 78597
L1D AVERAGE MISS LATENCY: 142.273 cycles
L1D RQ	ACCESS:   41135355	FORWARD:          0	MERGED:   15134630	TO_CACHE:   25777369
L1D WQ	ACCESS:   32423916	FORWARD:     223356	MERGED:    3462579	TO_CACHE:   28961337
L1D PQ	ACCESS:    2933291	FORWARD:          0	MERGED:     906079	TO_CACHE:    2027212

L1D UNIQUE REGIONS ACCESSED: 0
L1D REGIONS CONFLICTS: 0
L1D Cross Page Prefetch Requests: 980981
L1D Same Page Prefetch Requests: 2570727
L1D ROI Sum of L1D PQ occupancy: 29633643
L1D PREFETCHES PUSHED FROM L2C: 0
L1I TOTAL     ACCESS:   36597955  HIT:   36569606  MISS:      28349  HIT %:    99.9225  MISS %:  0.0774606   MPKI: 0.141745
L1I LOAD      ACCESS:   36597955  HIT:   36569606  MISS:      28349  HIT %:    99.9225  MISS %:  0.0774606   MPKI: 0.141745
L1I PREFETCH  REQUESTED:          0  ISSUED:          0  USEFUL:          0  USELESS:          0
L1I USEFUL LOAD PREFETCHES:          0 PREFETCH ISSUED TO LOWER LEVEL:          0  ACCURACY: -nan
L1I TIMELY PREFETCHES:          0 LATE PREFETCHES: 0 DROPPED PREFETCHES: 0
L1I PREFETCHES SAME FILL-ORIGIN LEVEL: 0 DIFFERENT FILL-ORIGIN LEVEL: 0
L1I AVERAGE MISS LATENCY: 14.0971 cycles
L1I RQ	ACCESS:   54982650	FORWARD:          0	MERGED:   18370054	TO_CACHE:   36612596

BTB TOTAL     ACCESS:   25706164  HIT:   25664544  MISS:      41620  HIT %:    99.8381  MISS %:   0.161907   MPKI: 0.2081
BTB BRANCH_DIRECT_JUMP	ACCESS:    2382754  HIT:    2382629  MISS:        125
BTB BRANCH_INDIRECT	ACCESS:          0  HIT:          0  MISS:          0
BTB BRANCH_CONDITIONAL	ACCESS:   23106873  HIT:   23106052  MISS:        821
BTB BRANCH_DIRECT_CALL	ACCESS:     108268  HIT:     108185  MISS:         83
BTB BRANCH_INDIRECT_CALL	ACCESS:          0  HIT:          0  MISS:          0
BTB BRANCH_RETURN	ACCESS:     108269  HIT:      67678  MISS:      40591
BTB BRANCH_OTHER ACCESS:          0  HIT:          0  MISS:          0

L2C TOTAL     ACCESS:     106957  HIT:     106927  MISS:         30  HIT %:     99.972  MISS %:  0.0280487   MPKI: 0.00015
L2C LOAD      ACCESS:      28360  HIT:      28330  MISS:         30  HIT %:    99.8942  MISS %:   0.105783   MPKI: 0.00015
L2C DATA LOAD MPKI: 5.5e-05
L2C INSTRUCTION LOAD MPKI: 9.5e-05
L2C PREFETCH  ACCESS:      78597  HIT:      78597  MISS:          0  HIT %:        100  MISS %:          0   MPKI: 0
L2C DATA PREFETCH MPKI: 0
L2C INSTRUCTION PREFETCH MPKI: 0
L2C PREFETCH  REQUESTED:          0  ISSUED:          0  USEFUL:          0  USELESS:          0
L2C USEFUL LOAD PREFETCHES:          0 PREFETCH ISSUED TO LOWER LEVEL:          0  ACCURACY: -nan
L2C TIMELY PREFETCHES:          0 LATE PREFETCHES: 0 DROPPED PREFETCHES: 0
L2C PREFETCHES SAME FILL-ORIGIN LEVEL: 0 DIFFERENT FILL-ORIGIN LEVEL: 0
L2C AVERAGE MISS LATENCY: 133.333 cycles
L2C RQ	ACCESS:      28360	FORWARD:          0	MERGED:          0	TO_CACHE:      28360
L2C PQ	ACCESS:      78597	FORWARD:          0	MERGED:          0	TO_CACHE:      78597

L2C Instructions Evicting Data 0
L2C Translations Evicting Data 0
L2C Data Evicting Data 0
L2C Instructions Evicting Instructions 0
L2C Translations Evicting Instructions 0
L2C Data Evicting Instructions 0
L2C Instructions Evicting Translations 0
L2C Translations Evicting Translations 0
L2C Data Evicting Translations 0
L2C Dense regions hint from L2: 0
PSCL5 PREFETCH  REQUESTED:          0  ISSUED:          0  USEFUL:          0  USELESS:          0
PSCL5 USEFUL LOAD PREFETCHES:          0 PREFETCH ISSUED TO LOWER LEVEL:          0  ACCURACY: -nan
PSCL5 TIMELY PREFETCHES:          0 LATE PREFETCHES: 0 DROPPED PREFETCHES: 0
PSCL5 PREFETCHES SAME FILL-ORIGIN LEVEL: 0 DIFFERENT FILL-ORIGIN LEVEL: 0

PSCL4 PREFETCH  REQUESTED:          0  ISSUED:          0  USEFUL:          0  USELESS:          0
PSCL4 USEFUL LOAD PREFETCHES:          0 PREFETCH ISSUED TO LOWER LEVEL:          0  ACCURACY: -nan
PSCL4 TIMELY PREFETCHES:          0 LATE PREFETCHES: 0 DROPPED PREFETCHES: 0
PSCL4 PREFETCHES SAME FILL-ORIGIN LEVEL: 0 DIFFERENT FILL-ORIGIN LEVEL: 0

PSCL3 PREFETCH  REQUESTED:          0  ISSUED:          0  USEFUL:          0  USELESS:          0
PSCL3 USEFUL LOAD PREFETCHES:          0 PREFETCH ISSUED TO LOWER LEVEL:          0  ACCURACY: -nan
PSCL3 TIMELY PREFETCHES:          0 LATE PREFETCHES: 0 DROPPED PREFETCHES: 0
PSCL3 PREFETCHES SAME FILL-ORIGIN LEVEL: 0 DIFFERENT FILL-ORIGIN LEVEL: 0

PSCL2 PREFETCH  REQUESTED:          0  ISSUED:          0  USEFUL:          0  USELESS:          0
PSCL2 USEFUL LOAD PREFETCHES:          0 PREFETCH ISSUED TO LOWER LEVEL:          0  ACCURACY: -nan
PSCL2 TIMELY PREFETCHES:          0 LATE PREFETCHES: 0 DROPPED PREFETCHES: 0
PSCL2 PREFETCHES SAME FILL-ORIGIN LEVEL: 0 DIFFERENT FILL-ORIGIN LEVEL: 0

LLC TOTAL     ACCESS:         30  HIT:          0  MISS:         30  HIT %:          0  MISS %:        100   MPKI: 0.00015
LLC LOAD      ACCESS:         30  HIT:          0  MISS:         30  HIT %:          0  MISS %:        100   MPKI: 0.00015
LLC PREFETCH  REQUESTED:          0  ISSUED:          0  USEFUL:          0  USELESS:          0
LLC USEFUL LOAD PREFETCHES:          0 PREFETCH ISSUED TO LOWER LEVEL:          0  ACCURACY: -nan
LLC TIMELY PREFETCHES:          0 LATE PREFETCHES: 0 DROPPED PREFETCHES: 0
LLC PREFETCHES SAME FILL-ORIGIN LEVEL: 0 DIFFERENT FILL-ORIGIN LEVEL: 0
LLC AVERAGE MISS LATENCY: 103.333 cycles
LLC RQ	ACCESS:         30	FORWARD:          0	MERGED:          0	TO_CACHE:         30

LLC Dense regions hint to LLC: 0

RAW hits: 6354587
Loads Generated: 47489942
Loads sent to L1D: 41135355
Stores Generated: 32423910
Stores sent to L1D: 32423916
Major fault: 0 Minor fault: 58
Allocated PAGES: 58

DRAM Statistics
 CHANNEL 0
 RQ ROW_BUFFER_HIT:         20  ROW_BUFFER_MISS:         10
 DBUS_CONGESTED:          0
 WQ ROW_BUFFER_HIT:          0  ROW_BUFFER_MISS:          0  FULL:          0

 AVG_CONGESTED_CYCLE: -
 All warmup complete: 2
Channel 0 Bank busy for read cycles: 0
Channel 0 Bank busy for write cycles: 0
Channel 0
Rank 0
0banks busy for read cycles: 194788126
0banks busy for write cycles: 0
1banks busy for read cycles: 2110
1banks busy for write cycles: 0
2banks busy for read cycles: 195
2banks busy for write cycles: 0
3banks busy for read cycles: 0
3banks busy for write cycles: 0
4banks busy for read cycles: 0
4banks busy for write cycles: 0
5banks busy for read cycles: 0
5banks busy for write cycles: 0
6banks busy for read cycles: 0
6banks busy for write cycles: 0
7banks busy for read cycles: 0
7banks busy for write cycles: 0
8banks busy for read cycles: 0
8banks busy for write cycles: 0

CPU 0 Branch Prediction Accuracy: 99.4568% MPKI: 0.70522 Average ROB Occupancy at Mispredict: 33.0771
Branch types
NOT_BRANCH: 171434355 85.7172%
BRANCH_DIRECT_JUMP: 2382754 1.19138%
BRANCH_INDIRECT: 0 0%
BRANCH_CONDITIONAL: 25966018 12.983%
BRANCH_DIRECT_CALL: 108268 0.054134%
BRANCH_INDIRECT_CALL: 0 0%
BRANCH_RETURN: 108269 0.0541345%
BRANCH_OTHER: 0 0%

DRAM PAGES: 1048576
Allocated PAGES: 58
