 (TOTAL 523355 bits 511 Kbits) 
*** ChampSim Multicore Out-of-Order Simulator ***

Warmup Instructions: 50000000
Simulation Instructions: 200000000
Number of CPUs: 1
LLC sets: 2048
LLC ways: 16
Off-chip DRAM Size: 4096 MB Channels: 1 Width: 64-bit Data Rate: 6400 MT/s
argv[0]: ./ChampSim/Berti/bin/tagescl-no-vberti-no-no-no-no-no-lru-lru-lru-srrip-drrip-lru-lru-lru-1core-no
argv[1]: -warmup_instructions
argv[2]: 50000000
argv[3]: -simulation_instructions
argv[4]: 200000000
argv[5]: -traces
argv[6]: traces/spec2k17_ten/648.exchange2_s-1699B.champsimtrace.xz
CPU 0 runs traces/spec2k17_ten/648.exchange2_s-1699B.champsimtrace.xz
.xz
CPU 0 Tage branch predictor
BTB has LRU replacement policy
ITLB has LRU replacement policy
DTLB has LRU replacement policy
STLB has LRU replacement policy
L1I has LRU replacement policy
History Sets: 8
History Ways: 16
BERTI Size: 16
BERTI Stride Size: 16
L1D has LRU replacement policy
Initialize SRRIP state for L2C
Initialize DRRIP state for LLC
Heartbeat CPU 0 instructions: 10000002 cycles: 2668025 heartbeat IPC: 3.74809 cumulative IPC: 3.74809 (Simulation time: 0 hr 5 min 28 sec) 
Heartbeat CPU 0 instructions: 20000001 cycles: 5334871 heartbeat IPC: 3.74975 cumulative IPC: 3.74892 (Simulation time: 0 hr 9 min 35 sec) 
Heartbeat CPU 0 instructions: 30000000 cycles: 8002382 heartbeat IPC: 3.74881 cumulative IPC: 3.74888 (Simulation time: 0 hr 13 min 42 sec) 
Heartbeat CPU 0 instructions: 40000001 cycles: 10688261 heartbeat IPC: 3.72318 cumulative IPC: 3.74242 (Simulation time: 0 hr 17 min 55 sec) 
Heartbeat CPU 0 instructions: 50000001 cycles: 13368404 heartbeat IPC: 3.73114 cumulative IPC: 3.74016 (Simulation time: 0 hr 22 min 53 sec) 

Warmup complete CPU 0 instructions: 50000001 cycles: 13368404 (Simulation time: 0 hr 22 min 53 sec) 

Heartbeat CPU 0 instructions: 60000000 cycles: 22374026 heartbeat IPC: 1.11042 cumulative IPC: 1.11042 (Simulation time: 0 hr 28 min 2 sec) 
Heartbeat CPU 0 instructions: 70000000 cycles: 31410412 heartbeat IPC: 1.10664 cumulative IPC: 1.10852 (Simulation time: 0 hr 33 min 35 sec) 
Heartbeat CPU 0 instructions: 80000002 cycles: 40404107 heartbeat IPC: 1.11189 cumulative IPC: 1.10964 (Simulation time: 0 hr 39 min 6 sec) 
Heartbeat CPU 0 instructions: 90000002 cycles: 49369276 heartbeat IPC: 1.11543 cumulative IPC: 1.11108 (Simulation time: 0 hr 44 min 20 sec) 
Heartbeat CPU 0 instructions: 100000002 cycles: 58363040 heartbeat IPC: 1.11188 cumulative IPC: 1.11124 (Simulation time: 0 hr 49 min 39 sec) 
Heartbeat CPU 0 instructions: 110000000 cycles: 67298288 heartbeat IPC: 1.11916 cumulative IPC: 1.11256 (Simulation time: 0 hr 54 min 31 sec) 
Heartbeat CPU 0 instructions: 120000000 cycles: 76216871 heartbeat IPC: 1.12125 cumulative IPC: 1.11379 (Simulation time: 0 hr 59 min 59 sec) 
Heartbeat CPU 0 instructions: 130000002 cycles: 85860461 heartbeat IPC: 1.03696 cumulative IPC: 1.10357 (Simulation time: 1 hr 5 min 45 sec) 
Heartbeat CPU 0 instructions: 140000001 cycles: 94691516 heartbeat IPC: 1.13237 cumulative IPC: 1.1067 (Simulation time: 1 hr 9 min 56 sec) 
Heartbeat CPU 0 instructions: 150000002 cycles: 103558901 heartbeat IPC: 1.12773 cumulative IPC: 1.10876 (Simulation time: 1 hr 12 min 42 sec) 
Heartbeat CPU 0 instructions: 160000003 cycles: 112374029 heartbeat IPC: 1.13441 cumulative IPC: 1.11105 (Simulation time: 1 hr 14 min 3 sec) 
Heartbeat CPU 0 instructions: 170000000 cycles: 121209726 heartbeat IPC: 1.13177 cumulative IPC: 1.11275 (Simulation time: 1 hr 15 min 22 sec) 
Heartbeat CPU 0 instructions: 180000000 cycles: 130007077 heartbeat IPC: 1.13671 cumulative IPC: 1.11455 (Simulation time: 1 hr 17 min 45 sec) 
Heartbeat CPU 0 instructions: 190000000 cycles: 138838449 heartbeat IPC: 1.13233 cumulative IPC: 1.1158 (Simulation time: 1 hr 21 min 0 sec) 
Heartbeat CPU 0 instructions: 200000003 cycles: 147635595 heartbeat IPC: 1.13673 cumulative IPC: 1.11718 (Simulation time: 1 hr 24 min 1 sec) 
Heartbeat CPU 0 instructions: 210000001 cycles: 156447648 heartbeat IPC: 1.13481 cumulative IPC: 1.11826 (Simulation time: 1 hr 26 min 58 sec) 
Heartbeat CPU 0 instructions: 220000000 cycles: 165200831 heartbeat IPC: 1.14244 cumulative IPC: 1.11966 (Simulation time: 1 hr 29 min 52 sec) 
Heartbeat CPU 0 instructions: 230000003 cycles: 174008309 heartbeat IPC: 1.1354 cumulative IPC: 1.12052 (Simulation time: 1 hr 32 min 52 sec) 
Heartbeat CPU 0 instructions: 240000001 cycles: 183602852 heartbeat IPC: 1.04226 cumulative IPC: 1.11611 (Simulation time: 1 hr 35 min 36 sec) 
Heartbeat CPU 0 instructions: 250000000 cycles: 192433876 heartbeat IPC: 1.13237 cumulative IPC: 1.11691 (Simulation time: 1 hr 38 min 17 sec) 
Finished CPU 0 instructions: 200000003 cycles: 179065473 cumulative IPC: 1.11691 (Simulation time: 1 hr 38 min 17 sec) 

ChampSim completed all CPUs

Region of Interest Statistics

CPU 0 cumulative IPC: 1.11691 instructions: 200000003 cycles: 179065473
ITLB TOTAL     ACCESS:   29540654  HIT:   29540654  MISS:          0  HIT %:        100  MISS %:          0   MPKI: 0
ITLB LOAD TRANSLATION ACCESS:   29540654  HIT:   29540654  MISS:          0  HIT %:        100  MISS %:          0   MPKI: 0
ITLB PREFETCH  REQUESTED:          0  ISSUED:          0  USEFUL:          0  USELESS:          0
ITLB USEFUL LOAD PREFETCHES:          0 PREFETCH ISSUED TO LOWER LEVEL:          0  ACCURACY: -nan
ITLB TIMELY PREFETCHES:          0 LATE PREFETCHES: 0 DROPPED PREFETCHES: 0
ITLB PREFETCHES SAME FILL-ORIGIN LEVEL: 0 DIFFERENT FILL-ORIGIN LEVEL: 0
ITLB AVERAGE MISS LATENCY: -nan cycles
ITLB RQ	ACCESS:   36196353	FORWARD:          0	MERGED:    6655700	TO_CACHE:   29540653

DTLB TOTAL     ACCESS:   33738228  HIT:   33738228  MISS:          0  HIT %:        100  MISS %:          0   MPKI: 0
DTLB LOAD TRANSLATION ACCESS:   33738228  HIT:   33738228  MISS:          0  HIT %:        100  MISS %:          0   MPKI: 0
DTLB PREFETCH  REQUESTED:          0  ISSUED:          0  USEFUL:          0  USELESS:          0
DTLB USEFUL LOAD PREFETCHES:          0 PREFETCH ISSUED TO LOWER LEVEL:          0  ACCURACY: -nan
DTLB TIMELY PREFETCHES:          0 LATE PREFETCHES: 0 DROPPED PREFETCHES: 0
DTLB PREFETCHES SAME FILL-ORIGIN LEVEL: 0 DIFFERENT FILL-ORIGIN LEVEL: 0
DTLB AVERAGE MISS LATENCY: -nan cycles
DTLB RQ	ACCESS:   54900127	FORWARD:          0	MERGED:   21161899	TO_CACHE:   33738228

STLB PREFETCH  REQUESTED:          0  ISSUED:          0  USEFUL:          0  USELESS:          0
STLB USEFUL LOAD PREFETCHES:          0 PREFETCH ISSUED TO LOWER LEVEL:          0  ACCURACY: -nan
STLB TIMELY PREFETCHES:          0 LATE PREFETCHES: 0 DROPPED PREFETCHES: 0
STLB PREFETCHES SAME FILL-ORIGIN LEVEL: 0 DIFFERENT FILL-ORIGIN LEVEL: 0
STLB AVERAGE MISS LATENCY: -nan cycles

STLB Hit, L1D data hit: 0
STLB Hit, L2C data hit: 0
STLB Hit, LLC data hit: 0
STLB Hit, LLC data miss: 0
STLB STLB hints to L2: 0
L1D TOTAL     ACCESS:   54900127  HIT:   54900126  MISS:          1  HIT %:        100  MISS %: 1.82149e-06   MPKI: 5e-06
L1D LOAD      ACCESS:   24565938  HIT:   24565937  MISS:          1  HIT %:        100  MISS %: 4.07068e-06   MPKI: 5e-06
L1D RFO       ACCESS:   30334189  HIT:   30334189  MISS:          0  HIT %:        100  MISS %:          0   MPKI: 0
L1D PREFETCH  REQUESTED:          0  ISSUED:          0  USEFUL:          0  USELESS:          0
L1D USEFUL LOAD PREFETCHES:          0 PREFETCH ISSUED TO LOWER LEVEL:          0  ACCURACY: -nan
L1D TIMELY PREFETCHES:          0 LATE PREFETCHES: 0 DROPPED PREFETCHES: 0
L1D PREFETCHES SAME FILL-ORIGIN LEVEL: 0 DIFFERENT FILL-ORIGIN LEVEL: 0
L1D AVERAGE MISS LATENCY: 215 cycles
L1D RQ	ACCESS:   41315042	FORWARD:          0	MERGED:   16574611	TO_CACHE:   24565938
L1D WQ	ACCESS:   34358635	FORWARD:     174493	MERGED:    4024446	TO_CACHE:   30334189

L1D UNIQUE REGIONS ACCESSED: 0
L1D REGIONS CONFLICTS: 0
L1D Cross Page Prefetch Requests: 0
L1D Same Page Prefetch Requests: 0
L1D ROI Sum of L1D PQ occupancy: 0
L1D PREFETCHES PUSHED FROM L2C: 0
L1I TOTAL     ACCESS:   36195428  HIT:   36193417  MISS:       2011  HIT %:    99.9944  MISS %: 0.00555595   MPKI: 0.010055
L1I LOAD      ACCESS:   36195428  HIT:   36193417  MISS:       2011  HIT %:    99.9944  MISS %: 0.00555595   MPKI: 0.010055
L1I PREFETCH  REQUESTED:          0  ISSUED:          0  USEFUL:          0  USELESS:          0
L1I USEFUL LOAD PREFETCHES:          0 PREFETCH ISSUED TO LOWER LEVEL:          0  ACCURACY: -nan
L1I TIMELY PREFETCHES:          0 LATE PREFETCHES: 0 DROPPED PREFETCHES: 0
L1I PREFETCHES SAME FILL-ORIGIN LEVEL: 0 DIFFERENT FILL-ORIGIN LEVEL: 0
L1I AVERAGE MISS LATENCY: 14.4003 cycles
L1I RQ	ACCESS:   54021604	FORWARD:          0	MERGED:   17825251	TO_CACHE:   36196353

BTB TOTAL     ACCESS:   25105210  HIT:   25101297  MISS:       3913  HIT %:    99.9844  MISS %:  0.0155864   MPKI: 0.019565
BTB BRANCH_DIRECT_JUMP	ACCESS:    2150153  HIT:    2150059  MISS:         94
BTB BRANCH_INDIRECT	ACCESS:          0  HIT:          0  MISS:          0
BTB BRANCH_CONDITIONAL	ACCESS:   22903958  HIT:   22903371  MISS:        587
BTB BRANCH_DIRECT_CALL	ACCESS:      25549  HIT:      25469  MISS:         80
BTB BRANCH_INDIRECT_CALL	ACCESS:          0  HIT:          0  MISS:          0
BTB BRANCH_RETURN	ACCESS:      25550  HIT:      22398  MISS:       3152
BTB BRANCH_OTHER ACCESS:          0  HIT:          0  MISS:          0

L2C TOTAL     ACCESS:       2012  HIT:       2007  MISS:          5  HIT %:    99.7515  MISS %:   0.248509   MPKI: 2.5e-05
L2C LOAD      ACCESS:       2012  HIT:       2007  MISS:          5  HIT %:    99.7515  MISS %:   0.248509   MPKI: 2.5e-05
L2C DATA LOAD MPKI: 5e-06
L2C INSTRUCTION LOAD MPKI: 2e-05
L2C PREFETCH  REQUESTED:          0  ISSUED:          0  USEFUL:          0  USELESS:          0
L2C USEFUL LOAD PREFETCHES:          0 PREFETCH ISSUED TO LOWER LEVEL:          0  ACCURACY: -nan
L2C TIMELY PREFETCHES:          0 LATE PREFETCHES: 0 DROPPED PREFETCHES: 0
L2C PREFETCHES SAME FILL-ORIGIN LEVEL: 0 DIFFERENT FILL-ORIGIN LEVEL: 0
L2C AVERAGE MISS LATENCY: 200 cycles
L2C RQ	ACCESS:       2012	FORWARD:          0	MERGED:          0	TO_CACHE:       2012

L2C Instructions Evicting Data 0
L2C Translations Evicting Data 0
L2C Data Evicting Data 0
L2C Instructions Evicting Instructions 0
L2C Translations Evicting Instructions 0
L2C Data Evicting Instructions 0
L2C Instructions Evicting Translations 0
L2C Translations Evicting Translations 0
L2C Data Evicting Translations 0
L2C Dense regions hint from L2: 0
PSCL5 PREFETCH  REQUESTED:          0  ISSUED:          0  USEFUL:          0  USELESS:          0
PSCL5 USEFUL LOAD PREFETCHES:          0 PREFETCH ISSUED TO LOWER LEVEL:          0  ACCURACY: -nan
PSCL5 TIMELY PREFETCHES:          0 LATE PREFETCHES: 0 DROPPED PREFETCHES: 0
PSCL5 PREFETCHES SAME FILL-ORIGIN LEVEL: 0 DIFFERENT FILL-ORIGIN LEVEL: 0

PSCL4 PREFETCH  REQUESTED:          0  ISSUED:          0  USEFUL:          0  USELESS:          0
PSCL4 USEFUL LOAD PREFETCHES:          0 PREFETCH ISSUED TO LOWER LEVEL:          0  ACCURACY: -nan
PSCL4 TIMELY PREFETCHES:          0 LATE PREFETCHES: 0 DROPPED PREFETCHES: 0
PSCL4 PREFETCHES SAME FILL-ORIGIN LEVEL: 0 DIFFERENT FILL-ORIGIN LEVEL: 0

PSCL3 PREFETCH  REQUESTED:          0  ISSUED:          0  USEFUL:          0  USELESS:          0
PSCL3 USEFUL LOAD PREFETCHES:          0 PREFETCH ISSUED TO LOWER LEVEL:          0  ACCURACY: -nan
PSCL3 TIMELY PREFETCHES:          0 LATE PREFETCHES: 0 DROPPED PREFETCHES: 0
PSCL3 PREFETCHES SAME FILL-ORIGIN LEVEL: 0 DIFFERENT FILL-ORIGIN LEVEL: 0

PSCL2 PREFETCH  REQUESTED:          0  ISSUED:          0  USEFUL:          0  USELESS:          0
PSCL2 USEFUL LOAD PREFETCHES:          0 PREFETCH ISSUED TO LOWER LEVEL:          0  ACCURACY: -nan
PSCL2 TIMELY PREFETCHES:          0 LATE PREFETCHES: 0 DROPPED PREFETCHES: 0
PSCL2 PREFETCHES SAME FILL-ORIGIN LEVEL: 0 DIFFERENT FILL-ORIGIN LEVEL: 0

LLC TOTAL     ACCESS:          5  HIT:          0  MISS:          5  HIT %:          0  MISS %:        100   MPKI: 2.5e-05
LLC LOAD      ACCESS:          5  HIT:          0  MISS:          5  HIT %:          0  MISS %:        100   MPKI: 2.5e-05
LLC PREFETCH  REQUESTED:          0  ISSUED:          0  USEFUL:          0  USELESS:          0
LLC USEFUL LOAD PREFETCHES:          0 PREFETCH ISSUED TO LOWER LEVEL:          0  ACCURACY: -nan
LLC TIMELY PREFETCHES:          0 LATE PREFETCHES: 0 DROPPED PREFETCHES: 0
LLC PREFETCHES SAME FILL-ORIGIN LEVEL: 0 DIFFERENT FILL-ORIGIN LEVEL: 0
LLC AVERAGE MISS LATENCY: 170 cycles
LLC RQ	ACCESS:          5	FORWARD:          0	MERGED:          0	TO_CACHE:          5

LLC Dense regions hint to LLC: 0

RAW hits: 7543074
Loads Generated: 48858117
Loads sent to L1D: 41315042
Stores Generated: 34358618
Stores sent to L1D: 34358635
Major fault: 0 Minor fault: 56
Allocated PAGES: 56

DRAM Statistics
 CHANNEL 0
 RQ ROW_BUFFER_HIT:          0  ROW_BUFFER_MISS:          5
 DBUS_CONGESTED:          0
 WQ ROW_BUFFER_HIT:          0  ROW_BUFFER_MISS:          0  FULL:          0

 AVG_CONGESTED_CYCLE: -
 All warmup complete: 2
Channel 0 Bank busy for read cycles: 0
Channel 0 Bank busy for write cycles: 0
Channel 0
Rank 0
0banks busy for read cycles: 179064724
0banks busy for write cycles: 0
1banks busy for read cycles: 750
1banks busy for write cycles: 0
2banks busy for read cycles: 0
2banks busy for write cycles: 0
3banks busy for read cycles: 0
3banks busy for write cycles: 0
4banks busy for read cycles: 0
4banks busy for write cycles: 0
5banks busy for read cycles: 0
5banks busy for write cycles: 0
6banks busy for read cycles: 0
6banks busy for write cycles: 0
7banks busy for read cycles: 0
7banks busy for write cycles: 0
8banks busy for read cycles: 0
8banks busy for write cycles: 0

CPU 0 Branch Prediction Accuracy: 99.6522% MPKI: 0.442195 Average ROB Occupancy at Mispredict: 31.2513
Branch types
NOT_BRANCH: 172368765 86.1844%
BRANCH_DIRECT_JUMP: 2150153 1.07508%
BRANCH_INDIRECT: 0 0%
BRANCH_CONDITIONAL: 25429639 12.7148%
BRANCH_DIRECT_CALL: 25549 0.0127745%
BRANCH_INDIRECT_CALL: 0 0%
BRANCH_RETURN: 25550 0.012775%
BRANCH_OTHER: 0 0%

DRAM PAGES: 1048576
Allocated PAGES: 56
