 (TOTAL 523355 bits 511 Kbits) 
*** ChampSim Multicore Out-of-Order Simulator ***

Warmup Instructions: 50000000
Simulation Instructions: 200000000
Number of CPUs: 1
LLC sets: 2048
LLC ways: 16
Off-chip DRAM Size: 4096 MB Channels: 1 Width: 64-bit Data Rate: 6400 MT/s
argv[0]: ./ChampSim/Berti/bin/tagescl-no-vberti-no-no-no-no-no-lru-lru-lru-srrip-drrip-lru-lru-lru-1core-no
argv[1]: -warmup_instructions
argv[2]: 50000000
argv[3]: -simulation_instructions
argv[4]: 200000000
argv[5]: -traces
argv[6]: traces/spec2k17_ten/648.exchange2_s-584B.champsimtrace.xz
CPU 0 runs traces/spec2k17_ten/648.exchange2_s-584B.champsimtrace.xz
.xz
CPU 0 Tage branch predictor
BTB has LRU replacement policy
ITLB has LRU replacement policy
DTLB has LRU replacement policy
STLB has LRU replacement policy
L1I has LRU replacement policy
History Sets: 8
History Ways: 16
BERTI Size: 16
BERTI Stride Size: 16
L1D has LRU replacement policy
Initialize SRRIP state for L2C
Initialize DRRIP state for LLC
Heartbeat CPU 0 instructions: 10000001 cycles: 2688934 heartbeat IPC: 3.71895 cumulative IPC: 3.71895 (Simulation time: 0 hr 4 min 42 sec) 
Heartbeat CPU 0 instructions: 20000001 cycles: 5378669 heartbeat IPC: 3.71784 cumulative IPC: 3.71839 (Simulation time: 0 hr 7 min 49 sec) 
Heartbeat CPU 0 instructions: 30000000 cycles: 8078754 heartbeat IPC: 3.70359 cumulative IPC: 3.71344 (Simulation time: 0 hr 12 min 10 sec) 
Heartbeat CPU 0 instructions: 40000002 cycles: 10776259 heartbeat IPC: 3.70713 cumulative IPC: 3.71186 (Simulation time: 0 hr 17 min 37 sec) 
Heartbeat CPU 0 instructions: 50000000 cycles: 13471274 heartbeat IPC: 3.71055 cumulative IPC: 3.7116 (Simulation time: 0 hr 22 min 38 sec) 

Warmup complete CPU 0 instructions: 50000004 cycles: 13471275 (Simulation time: 0 hr 22 min 38 sec) 

Heartbeat CPU 0 instructions: 60000002 cycles: 22443246 heartbeat IPC: 1.11458 cumulative IPC: 1.11458 (Simulation time: 0 hr 27 min 54 sec) 
Heartbeat CPU 0 instructions: 70000002 cycles: 31395525 heartbeat IPC: 1.11703 cumulative IPC: 1.11581 (Simulation time: 0 hr 32 min 39 sec) 
Heartbeat CPU 0 instructions: 80000000 cycles: 40285535 heartbeat IPC: 1.12486 cumulative IPC: 1.11881 (Simulation time: 0 hr 37 min 27 sec) 
Heartbeat CPU 0 instructions: 90000002 cycles: 50201930 heartbeat IPC: 1.00843 cumulative IPC: 1.08901 (Simulation time: 0 hr 42 min 48 sec) 
Heartbeat CPU 0 instructions: 100000003 cycles: 59276276 heartbeat IPC: 1.10201 cumulative IPC: 1.09158 (Simulation time: 0 hr 48 min 4 sec) 
Heartbeat CPU 0 instructions: 110000000 cycles: 68429469 heartbeat IPC: 1.09251 cumulative IPC: 1.09174 (Simulation time: 0 hr 52 min 53 sec) 
Heartbeat CPU 0 instructions: 120000002 cycles: 77546423 heartbeat IPC: 1.09686 cumulative IPC: 1.09247 (Simulation time: 0 hr 57 min 25 sec) 
Heartbeat CPU 0 instructions: 130000002 cycles: 86560708 heartbeat IPC: 1.10935 cumulative IPC: 1.09455 (Simulation time: 1 hr 2 min 51 sec) 
Heartbeat CPU 0 instructions: 140000001 cycles: 95550862 heartbeat IPC: 1.11233 cumulative IPC: 1.0965 (Simulation time: 1 hr 5 min 11 sec) 
Heartbeat CPU 0 instructions: 150000003 cycles: 104660914 heartbeat IPC: 1.09769 cumulative IPC: 1.09662 (Simulation time: 1 hr 6 min 31 sec) 
Heartbeat CPU 0 instructions: 160000000 cycles: 113732583 heartbeat IPC: 1.10233 cumulative IPC: 1.09713 (Simulation time: 1 hr 8 min 58 sec) 
Heartbeat CPU 0 instructions: 170000002 cycles: 122745706 heartbeat IPC: 1.10949 cumulative IPC: 1.09815 (Simulation time: 1 hr 12 min 2 sec) 
Heartbeat CPU 0 instructions: 180000003 cycles: 131839629 heartbeat IPC: 1.09964 cumulative IPC: 1.09827 (Simulation time: 1 hr 15 min 6 sec) 
Heartbeat CPU 0 instructions: 190000003 cycles: 140941092 heartbeat IPC: 1.09872 cumulative IPC: 1.0983 (Simulation time: 1 hr 18 min 8 sec) 
Heartbeat CPU 0 instructions: 200000001 cycles: 149991102 heartbeat IPC: 1.10497 cumulative IPC: 1.09874 (Simulation time: 1 hr 21 min 9 sec) 
Heartbeat CPU 0 instructions: 210000003 cycles: 158930775 heartbeat IPC: 1.11861 cumulative IPC: 1.09996 (Simulation time: 1 hr 23 min 43 sec) 
Heartbeat CPU 0 instructions: 220000000 cycles: 168026217 heartbeat IPC: 1.09945 cumulative IPC: 1.09993 (Simulation time: 1 hr 26 min 50 sec) 
Heartbeat CPU 0 instructions: 230000001 cycles: 177089384 heartbeat IPC: 1.10337 cumulative IPC: 1.10012 (Simulation time: 1 hr 29 min 44 sec) 
Heartbeat CPU 0 instructions: 240000001 cycles: 187466456 heartbeat IPC: 0.963663 cumulative IPC: 1.09198 (Simulation time: 1 hr 32 min 26 sec) 
Heartbeat CPU 0 instructions: 250000002 cycles: 196781325 heartbeat IPC: 1.07355 cumulative IPC: 1.09105 (Simulation time: 1 hr 34 min 57 sec) 
Finished CPU 0 instructions: 200000001 cycles: 183310052 cumulative IPC: 1.09105 (Simulation time: 1 hr 34 min 57 sec) 

ChampSim completed all CPUs

Region of Interest Statistics

CPU 0 cumulative IPC: 1.09105 instructions: 200000001 cycles: 183310052
ITLB TOTAL     ACCESS:   29870269  HIT:   29870269  MISS:          0  HIT %:        100  MISS %:          0   MPKI: 0
ITLB LOAD TRANSLATION ACCESS:   29870269  HIT:   29870269  MISS:          0  HIT %:        100  MISS %:          0   MPKI: 0
ITLB PREFETCH  REQUESTED:          0  ISSUED:          0  USEFUL:          0  USELESS:          0
ITLB USEFUL LOAD PREFETCHES:          0 PREFETCH ISSUED TO LOWER LEVEL:          0  ACCURACY: -nan
ITLB TIMELY PREFETCHES:          0 LATE PREFETCHES: 0 DROPPED PREFETCHES: 0
ITLB PREFETCHES SAME FILL-ORIGIN LEVEL: 0 DIFFERENT FILL-ORIGIN LEVEL: 0
ITLB AVERAGE MISS LATENCY: -nan cycles
ITLB RQ	ACCESS:   36900557	FORWARD:          0	MERGED:    7030288	TO_CACHE:   29870269

DTLB TOTAL     ACCESS:   34281426  HIT:   34281425  MISS:          1  HIT %:        100  MISS %: 2.91703e-06   MPKI: 5e-06
DTLB LOAD TRANSLATION ACCESS:   34281426  HIT:   34281425  MISS:          1  HIT %:        100  MISS %: 2.91703e-06   MPKI: 5e-06
DTLB PREFETCH  REQUESTED:          0  ISSUED:          0  USEFUL:          0  USELESS:          0
DTLB USEFUL LOAD PREFETCHES:          0 PREFETCH ISSUED TO LOWER LEVEL:          0  ACCURACY: -nan
DTLB TIMELY PREFETCHES:          0 LATE PREFETCHES: 0 DROPPED PREFETCHES: 0
DTLB PREFETCHES SAME FILL-ORIGIN LEVEL: 0 DIFFERENT FILL-ORIGIN LEVEL: 0
DTLB AVERAGE MISS LATENCY: 320 cycles
DTLB RQ	ACCESS:   55747830	FORWARD:          0	MERGED:   21466404	TO_CACHE:   34281426

STLB TOTAL     ACCESS:          1  HIT:          0  MISS:          1  HIT %:          0  MISS %:        100   MPKI: 5e-06
STLB LOAD TRANSLATION ACCESS:          1  HIT:          0  MISS:          1  HIT %:          0  MISS %:        100   MPKI: 5e-06
STLB PREFETCH  REQUESTED:          0  ISSUED:          0  USEFUL:          0  USELESS:          0
STLB USEFUL LOAD PREFETCHES:          0 PREFETCH ISSUED TO LOWER LEVEL:          0  ACCURACY: -nan
STLB TIMELY PREFETCHES:          0 LATE PREFETCHES: 0 DROPPED PREFETCHES: 0
STLB PREFETCHES SAME FILL-ORIGIN LEVEL: 0 DIFFERENT FILL-ORIGIN LEVEL: 0
STLB AVERAGE MISS LATENCY: 311 cycles
STLB RQ	ACCESS:          1	FORWARD:          0	MERGED:          0	TO_CACHE:          1

STLB Hit, L1D data hit: 0
STLB Hit, L2C data hit: 0
STLB Hit, LLC data hit: 0
STLB Hit, LLC data miss: 0
STLB STLB hints to L2: 0
L1D TOTAL     ACCESS:   55747676  HIT:   55747660  MISS:         16  HIT %:        100  MISS %: 2.87007e-05   MPKI: 8e-05
L1D LOAD      ACCESS:   24926367  HIT:   24926363  MISS:          4  HIT %:        100  MISS %: 1.60473e-05   MPKI: 2e-05
L1D RFO       ACCESS:   30821309  HIT:   30821297  MISS:         12  HIT %:        100  MISS %: 3.89341e-05   MPKI: 6e-05
L1D PREFETCH  REQUESTED:          0  ISSUED:          0  USEFUL:          0  USELESS:          0
L1D USEFUL LOAD PREFETCHES:          0 PREFETCH ISSUED TO LOWER LEVEL:          0  ACCURACY: -nan
L1D TIMELY PREFETCHES:          0 LATE PREFETCHES: 0 DROPPED PREFETCHES: 0
L1D PREFETCHES SAME FILL-ORIGIN LEVEL: 0 DIFFERENT FILL-ORIGIN LEVEL: 0
L1D AVERAGE MISS LATENCY: 166.812 cycles
L1D RQ	ACCESS:   41483484	FORWARD:          0	MERGED:   16365775	TO_CACHE:   24926367
L1D WQ	ACCESS:   34509155	FORWARD:     191342	MERGED:    3687692	TO_CACHE:   30821463

L1D UNIQUE REGIONS ACCESSED: 0
L1D REGIONS CONFLICTS: 0
L1D Cross Page Prefetch Requests: 0
L1D Same Page Prefetch Requests: 0
L1D ROI Sum of L1D PQ occupancy: 0
L1D PREFETCHES PUSHED FROM L2C: 0
L1I TOTAL     ACCESS:   36898836  HIT:   36895262  MISS:       3574  HIT %:    99.9903  MISS %: 0.00968594   MPKI: 0.01787
L1I LOAD      ACCESS:   36898836  HIT:   36895262  MISS:       3574  HIT %:    99.9903  MISS %: 0.00968594   MPKI: 0.01787
L1I PREFETCH  REQUESTED:          0  ISSUED:          0  USEFUL:          0  USELESS:          0
L1I USEFUL LOAD PREFETCHES:          0 PREFETCH ISSUED TO LOWER LEVEL:          0  ACCURACY: -nan
L1I TIMELY PREFETCHES:          0 LATE PREFETCHES: 0 DROPPED PREFETCHES: 0
L1I PREFETCHES SAME FILL-ORIGIN LEVEL: 0 DIFFERENT FILL-ORIGIN LEVEL: 0
L1I AVERAGE MISS LATENCY: 15.7222 cycles
L1I RQ	ACCESS:   55064393	FORWARD:          0	MERGED:   18163836	TO_CACHE:   36900557

BTB TOTAL     ACCESS:   25817945  HIT:   25812288  MISS:       5657  HIT %:    99.9781  MISS %:  0.0219111   MPKI: 0.028285
BTB BRANCH_DIRECT_JUMP	ACCESS:    2748583  HIT:    2748465  MISS:        118
BTB BRANCH_INDIRECT	ACCESS:          0  HIT:          0  MISS:          0
BTB BRANCH_CONDITIONAL	ACCESS:   22984815  HIT:   22984073  MISS:        742
BTB BRANCH_DIRECT_CALL	ACCESS:      42274  HIT:      42193  MISS:         81
BTB BRANCH_INDIRECT_CALL	ACCESS:          0  HIT:          0  MISS:          0
BTB BRANCH_RETURN	ACCESS:      42273  HIT:      37557  MISS:       4716
BTB BRANCH_OTHER ACCESS:          0  HIT:          0  MISS:          0

L2C TOTAL     ACCESS:       3591  HIT:       3531  MISS:         60  HIT %:    98.3292  MISS %:    1.67084   MPKI: 0.0003
L2C LOAD      ACCESS:       3578  HIT:       3531  MISS:         47  HIT %:    98.6864  MISS %:    1.31358   MPKI: 0.000235
L2C DATA LOAD MPKI: 2e-05
L2C INSTRUCTION LOAD MPKI: 0.000215
L2C RFO       ACCESS:         12  HIT:          0  MISS:         12  HIT %:          0  MISS %:        100   MPKI: 6e-05
L2C LOAD TRANSLATION ACCESS:          1  HIT:          0  MISS:          1  HIT %:          0  MISS %:        100   MPKI: 5e-06
L2C PREFETCH  REQUESTED:          0  ISSUED:          0  USEFUL:          0  USELESS:          0
L2C USEFUL LOAD PREFETCHES:          0 PREFETCH ISSUED TO LOWER LEVEL:          0  ACCURACY: -nan
L2C TIMELY PREFETCHES:          0 LATE PREFETCHES: 0 DROPPED PREFETCHES: 0
L2C PREFETCHES SAME FILL-ORIGIN LEVEL: 0 DIFFERENT FILL-ORIGIN LEVEL: 0
L2C AVERAGE MISS LATENCY: 146.133 cycles
L2C RQ	ACCESS:       3591	FORWARD:          0	MERGED:          0	TO_CACHE:       3591

L2C Instructions Evicting Data 0
L2C Translations Evicting Data 0
L2C Data Evicting Data 0
L2C Instructions Evicting Instructions 0
L2C Translations Evicting Instructions 0
L2C Data Evicting Instructions 0
L2C Instructions Evicting Translations 0
L2C Translations Evicting Translations 0
L2C Data Evicting Translations 0
L2C Dense regions hint from L2: 0
PSCL5 TOTAL     ACCESS:          1  HIT:          1  MISS:          0  HIT %:        100  MISS %:          0   MPKI: 0
PSCL5 LOAD TRANSLATION ACCESS:          1  HIT:          1  MISS:          0  HIT %:        100  MISS %:          0   MPKI: 0
PSCL5 PREFETCH  REQUESTED:          0  ISSUED:          0  USEFUL:          0  USELESS:          0
PSCL5 USEFUL LOAD PREFETCHES:          0 PREFETCH ISSUED TO LOWER LEVEL:          0  ACCURACY: -nan
PSCL5 TIMELY PREFETCHES:          0 LATE PREFETCHES: 0 DROPPED PREFETCHES: 0
PSCL5 PREFETCHES SAME FILL-ORIGIN LEVEL: 0 DIFFERENT FILL-ORIGIN LEVEL: 0

PSCL4 TOTAL     ACCESS:          1  HIT:          1  MISS:          0  HIT %:        100  MISS %:          0   MPKI: 0
PSCL4 LOAD TRANSLATION ACCESS:          1  HIT:          1  MISS:          0  HIT %:        100  MISS %:          0   MPKI: 0
PSCL4 PREFETCH  REQUESTED:          0  ISSUED:          0  USEFUL:          0  USELESS:          0
PSCL4 USEFUL LOAD PREFETCHES:          0 PREFETCH ISSUED TO LOWER LEVEL:          0  ACCURACY: -nan
PSCL4 TIMELY PREFETCHES:          0 LATE PREFETCHES: 0 DROPPED PREFETCHES: 0
PSCL4 PREFETCHES SAME FILL-ORIGIN LEVEL: 0 DIFFERENT FILL-ORIGIN LEVEL: 0

PSCL3 TOTAL     ACCESS:          1  HIT:          1  MISS:          0  HIT %:        100  MISS %:          0   MPKI: 0
PSCL3 LOAD TRANSLATION ACCESS:          1  HIT:          1  MISS:          0  HIT %:        100  MISS %:          0   MPKI: 0
PSCL3 PREFETCH  REQUESTED:          0  ISSUED:          0  USEFUL:          0  USELESS:          0
PSCL3 USEFUL LOAD PREFETCHES:          0 PREFETCH ISSUED TO LOWER LEVEL:          0  ACCURACY: -nan
PSCL3 TIMELY PREFETCHES:          0 LATE PREFETCHES: 0 DROPPED PREFETCHES: 0
PSCL3 PREFETCHES SAME FILL-ORIGIN LEVEL: 0 DIFFERENT FILL-ORIGIN LEVEL: 0

PSCL2 TOTAL     ACCESS:          1  HIT:          1  MISS:          0  HIT %:        100  MISS %:          0   MPKI: 0
PSCL2 LOAD TRANSLATION ACCESS:          1  HIT:          1  MISS:          0  HIT %:        100  MISS %:          0   MPKI: 0
PSCL2 PREFETCH  REQUESTED:          0  ISSUED:          0  USEFUL:          0  USELESS:          0
PSCL2 USEFUL LOAD PREFETCHES:          0 PREFETCH ISSUED TO LOWER LEVEL:          0  ACCURACY: -nan
PSCL2 TIMELY PREFETCHES:          0 LATE PREFETCHES: 0 DROPPED PREFETCHES: 0
PSCL2 PREFETCHES SAME FILL-ORIGIN LEVEL: 0 DIFFERENT FILL-ORIGIN LEVEL: 0

LLC TOTAL     ACCESS:         60  HIT:          0  MISS:         60  HIT %:          0  MISS %:        100   MPKI: 0.0003
LLC LOAD      ACCESS:         47  HIT:          0  MISS:         47  HIT %:          0  MISS %:        100   MPKI: 0.000235
LLC RFO       ACCESS:         12  HIT:          0  MISS:         12  HIT %:          0  MISS %:        100   MPKI: 6e-05
LLC LOAD TRANSLATION ACCESS:          1  HIT:          0  MISS:          1  HIT %:          0  MISS %:        100   MPKI: 5e-06
LLC PREFETCH  REQUESTED:          0  ISSUED:          0  USEFUL:          0  USELESS:          0
LLC USEFUL LOAD PREFETCHES:          0 PREFETCH ISSUED TO LOWER LEVEL:          0  ACCURACY: -nan
LLC TIMELY PREFETCHES:          0 LATE PREFETCHES: 0 DROPPED PREFETCHES: 0
LLC PREFETCHES SAME FILL-ORIGIN LEVEL: 0 DIFFERENT FILL-ORIGIN LEVEL: 0
LLC AVERAGE MISS LATENCY: 116.133 cycles
LLC RQ	ACCESS:         60	FORWARD:          0	MERGED:          0	TO_CACHE:         60

LLC Dense regions hint to LLC: 0

RAW hits: 7299653
Loads Generated: 48783136
Loads sent to L1D: 41483484
Stores Generated: 34509148
Stores sent to L1D: 34509155
Major fault: 0 Minor fault: 56
Allocated PAGES: 56

DRAM Statistics
 CHANNEL 0
 RQ ROW_BUFFER_HIT:         33  ROW_BUFFER_MISS:         27
 DBUS_CONGESTED:          0
 WQ ROW_BUFFER_HIT:          0  ROW_BUFFER_MISS:          0  FULL:          0

 AVG_CONGESTED_CYCLE: -
 All warmup complete: 2
Channel 0 Bank busy for read cycles: 0
Channel 0 Bank busy for write cycles: 0
Channel 0
Rank 0
0banks busy for read cycles: 183305780
0banks busy for write cycles: 0
1banks busy for read cycles: 3182
1banks busy for write cycles: 0
2banks busy for read cycles: 907
2banks busy for write cycles: 0
3banks busy for read cycles: 81
3banks busy for write cycles: 0
4banks busy for read cycles: 54
4banks busy for write cycles: 0
5banks busy for read cycles: 49
5banks busy for write cycles: 0
6banks busy for read cycles: 0
6banks busy for write cycles: 0
7banks busy for read cycles: 0
7banks busy for write cycles: 0
8banks busy for read cycles: 0
8banks busy for write cycles: 0

CPU 0 Branch Prediction Accuracy: 99.4557% MPKI: 0.688695 Average ROB Occupancy at Mispredict: 32.9789
Branch types
NOT_BRANCH: 171861891 85.9309%
BRANCH_DIRECT_JUMP: 2748583 1.37429%
BRANCH_INDIRECT: 0 0%
BRANCH_CONDITIONAL: 25304628 12.6523%
BRANCH_DIRECT_CALL: 42274 0.021137%
BRANCH_INDIRECT_CALL: 0 0%
BRANCH_RETURN: 42273 0.0211365%
BRANCH_OTHER: 0 0%

DRAM PAGES: 1048576
Allocated PAGES: 56
