 (TOTAL 523355 bits 511 Kbits) 
*** ChampSim Multicore Out-of-Order Simulator ***

Warmup Instructions: 50000000
Simulation Instructions: 200000000
Number of CPUs: 1
LLC sets: 2048
LLC ways: 16
Off-chip DRAM Size: 4096 MB Channels: 1 Width: 64-bit Data Rate: 6400 MT/s
argv[0]: ./ChampSim/Berti/bin/tagescl-no-vberti-no-no-no-no-no-lru-lru-lru-srrip-drrip-lru-lru-lru-1core-no
argv[1]: -warmup_instructions
argv[2]: 50000000
argv[3]: -simulation_instructions
argv[4]: 200000000
argv[5]: -traces
argv[6]: traces/spec2k17_ten/648.exchange2_s-72B.champsimtrace.xz
CPU 0 runs traces/spec2k17_ten/648.exchange2_s-72B.champsimtrace.xz
.xz
CPU 0 Tage branch predictor
BTB has LRU replacement policy
ITLB has LRU replacement policy
DTLB has LRU replacement policy
STLB has LRU replacement policy
L1I has LRU replacement policy
History Sets: 8
History Ways: 16
BERTI Size: 16
BERTI Stride Size: 16
L1D has LRU replacement policy
Initialize SRRIP state for L2C
Initialize DRRIP state for LLC
Heartbeat CPU 0 instructions: 10000001 cycles: 2671440 heartbeat IPC: 3.7433 cumulative IPC: 3.7433 (Simulation time: 0 hr 4 min 14 sec) 
Heartbeat CPU 0 instructions: 20000002 cycles: 5346168 heartbeat IPC: 3.7387 cumulative IPC: 3.741 (Simulation time: 0 hr 7 min 39 sec) 
Heartbeat CPU 0 instructions: 30000001 cycles: 8021588 heartbeat IPC: 3.73773 cumulative IPC: 3.73991 (Simulation time: 0 hr 12 min 26 sec) 
Heartbeat CPU 0 instructions: 40000000 cycles: 10694054 heartbeat IPC: 3.74186 cumulative IPC: 3.7404 (Simulation time: 0 hr 17 min 43 sec) 
Heartbeat CPU 0 instructions: 50000000 cycles: 13382448 heartbeat IPC: 3.71969 cumulative IPC: 3.73624 (Simulation time: 0 hr 23 min 14 sec) 

Warmup complete CPU 0 instructions: 50000004 cycles: 13382449 (Simulation time: 0 hr 23 min 14 sec) 

Heartbeat CPU 0 instructions: 60000000 cycles: 22442623 heartbeat IPC: 1.10373 cumulative IPC: 1.10373 (Simulation time: 0 hr 28 min 41 sec) 
Heartbeat CPU 0 instructions: 70000003 cycles: 31395408 heartbeat IPC: 1.11697 cumulative IPC: 1.11031 (Simulation time: 0 hr 33 min 35 sec) 
Heartbeat CPU 0 instructions: 80000003 cycles: 40345799 heartbeat IPC: 1.11727 cumulative IPC: 1.11262 (Simulation time: 0 hr 38 min 48 sec) 
Heartbeat CPU 0 instructions: 90000000 cycles: 49201799 heartbeat IPC: 1.12918 cumulative IPC: 1.11671 (Simulation time: 0 hr 43 min 50 sec) 
Heartbeat CPU 0 instructions: 100000003 cycles: 58078531 heartbeat IPC: 1.12654 cumulative IPC: 1.11867 (Simulation time: 0 hr 49 min 21 sec) 
Heartbeat CPU 0 instructions: 110000000 cycles: 67813859 heartbeat IPC: 1.02719 cumulative IPC: 1.1023 (Simulation time: 0 hr 53 min 57 sec) 
Heartbeat CPU 0 instructions: 120000000 cycles: 76724948 heartbeat IPC: 1.1222 cumulative IPC: 1.1051 (Simulation time: 0 hr 58 min 20 sec) 
Heartbeat CPU 0 instructions: 130000000 cycles: 85640793 heartbeat IPC: 1.1216 cumulative IPC: 1.10714 (Simulation time: 1 hr 1 min 48 sec) 
Heartbeat CPU 0 instructions: 140000001 cycles: 94545940 heartbeat IPC: 1.12295 cumulative IPC: 1.10887 (Simulation time: 1 hr 3 min 10 sec) 
Heartbeat CPU 0 instructions: 150000001 cycles: 103481212 heartbeat IPC: 1.11916 cumulative IPC: 1.10989 (Simulation time: 1 hr 4 min 29 sec) 
Heartbeat CPU 0 instructions: 160000003 cycles: 112297453 heartbeat IPC: 1.13427 cumulative IPC: 1.11207 (Simulation time: 1 hr 6 min 0 sec) 
Heartbeat CPU 0 instructions: 170000003 cycles: 121199738 heartbeat IPC: 1.12331 cumulative IPC: 1.11299 (Simulation time: 1 hr 8 min 46 sec) 
Heartbeat CPU 0 instructions: 180000000 cycles: 130130760 heartbeat IPC: 1.11969 cumulative IPC: 1.11351 (Simulation time: 1 hr 11 min 40 sec) 
Heartbeat CPU 0 instructions: 190000000 cycles: 139011137 heartbeat IPC: 1.12608 cumulative IPC: 1.1144 (Simulation time: 1 hr 14 min 29 sec) 
Heartbeat CPU 0 instructions: 200000000 cycles: 147898481 heartbeat IPC: 1.1252 cumulative IPC: 1.11511 (Simulation time: 1 hr 17 min 23 sec) 
Heartbeat CPU 0 instructions: 210000001 cycles: 156755574 heartbeat IPC: 1.12904 cumulative IPC: 1.11597 (Simulation time: 1 hr 20 min 17 sec) 
Heartbeat CPU 0 instructions: 220000000 cycles: 165622384 heartbeat IPC: 1.1278 cumulative IPC: 1.11666 (Simulation time: 1 hr 23 min 2 sec) 
Heartbeat CPU 0 instructions: 230000003 cycles: 174472708 heartbeat IPC: 1.1299 cumulative IPC: 1.11739 (Simulation time: 1 hr 25 min 48 sec) 
Heartbeat CPU 0 instructions: 240000000 cycles: 183260824 heartbeat IPC: 1.1379 cumulative IPC: 1.11845 (Simulation time: 1 hr 28 min 37 sec) 
Heartbeat CPU 0 instructions: 250000001 cycles: 192044092 heartbeat IPC: 1.13853 cumulative IPC: 1.11943 (Simulation time: 1 hr 31 min 23 sec) 
Finished CPU 0 instructions: 200000000 cycles: 178661668 cumulative IPC: 1.11943 (Simulation time: 1 hr 31 min 23 sec) 

ChampSim completed all CPUs

Region of Interest Statistics

CPU 0 cumulative IPC: 1.11943 instructions: 200000000 cycles: 178661668
ITLB TOTAL     ACCESS:   29934625  HIT:   29934625  MISS:          0  HIT %:        100  MISS %:          0   MPKI: 0
ITLB LOAD TRANSLATION ACCESS:   29934625  HIT:   29934625  MISS:          0  HIT %:        100  MISS %:          0   MPKI: 0
ITLB PREFETCH  REQUESTED:          0  ISSUED:          0  USEFUL:          0  USELESS:          0
ITLB USEFUL LOAD PREFETCHES:          0 PREFETCH ISSUED TO LOWER LEVEL:          0  ACCURACY: -nan
ITLB TIMELY PREFETCHES:          0 LATE PREFETCHES: 0 DROPPED PREFETCHES: 0
ITLB PREFETCHES SAME FILL-ORIGIN LEVEL: 0 DIFFERENT FILL-ORIGIN LEVEL: 0
ITLB AVERAGE MISS LATENCY: -nan cycles
ITLB RQ	ACCESS:   36532970	FORWARD:          0	MERGED:    6598344	TO_CACHE:   29934626

DTLB TOTAL     ACCESS:   33574598  HIT:   33574598  MISS:          0  HIT %:        100  MISS %:          0   MPKI: 0
DTLB LOAD TRANSLATION ACCESS:   33574598  HIT:   33574598  MISS:          0  HIT %:        100  MISS %:          0   MPKI: 0
DTLB PREFETCH  REQUESTED:          0  ISSUED:          0  USEFUL:          0  USELESS:          0
DTLB USEFUL LOAD PREFETCHES:          0 PREFETCH ISSUED TO LOWER LEVEL:          0  ACCURACY: -nan
DTLB TIMELY PREFETCHES:          0 LATE PREFETCHES: 0 DROPPED PREFETCHES: 0
DTLB PREFETCHES SAME FILL-ORIGIN LEVEL: 0 DIFFERENT FILL-ORIGIN LEVEL: 0
DTLB AVERAGE MISS LATENCY: -nan cycles
DTLB RQ	ACCESS:   53705706	FORWARD:          0	MERGED:   20131108	TO_CACHE:   33574598

STLB PREFETCH  REQUESTED:          0  ISSUED:          0  USEFUL:          0  USELESS:          0
STLB USEFUL LOAD PREFETCHES:          0 PREFETCH ISSUED TO LOWER LEVEL:          0  ACCURACY: -nan
STLB TIMELY PREFETCHES:          0 LATE PREFETCHES: 0 DROPPED PREFETCHES: 0
STLB PREFETCHES SAME FILL-ORIGIN LEVEL: 0 DIFFERENT FILL-ORIGIN LEVEL: 0
STLB AVERAGE MISS LATENCY: -nan cycles

STLB Hit, L1D data hit: 0
STLB Hit, L2C data hit: 0
STLB Hit, LLC data hit: 0
STLB Hit, LLC data miss: 0
STLB STLB hints to L2: 0
L1D TOTAL     ACCESS:   53705706  HIT:   53705706  MISS:          0  HIT %:        100  MISS %:          0   MPKI: 0
L1D LOAD      ACCESS:   23721402  HIT:   23721402  MISS:          0  HIT %:        100  MISS %:          0   MPKI: 0
L1D RFO       ACCESS:   29984304  HIT:   29984304  MISS:          0  HIT %:        100  MISS %:          0   MPKI: 0
L1D PREFETCH  REQUESTED:          0  ISSUED:          0  USEFUL:          0  USELESS:          0
L1D USEFUL LOAD PREFETCHES:          0 PREFETCH ISSUED TO LOWER LEVEL:          0  ACCURACY: -nan
L1D TIMELY PREFETCHES:          0 LATE PREFETCHES: 0 DROPPED PREFETCHES: 0
L1D PREFETCHES SAME FILL-ORIGIN LEVEL: 0 DIFFERENT FILL-ORIGIN LEVEL: 0
L1D AVERAGE MISS LATENCY: -nan cycles
L1D RQ	ACCESS:   39951750	FORWARD:          0	MERGED:   16025345	TO_CACHE:   23721402
L1D WQ	ACCESS:   33779517	FORWARD:     205003	MERGED:    3795213	TO_CACHE:   29984304

L1D UNIQUE REGIONS ACCESSED: 0
L1D REGIONS CONFLICTS: 0
L1D Cross Page Prefetch Requests: 0
L1D Same Page Prefetch Requests: 0
L1D ROI Sum of L1D PQ occupancy: 0
L1D PREFETCHES PUSHED FROM L2C: 0
L1I TOTAL     ACCESS:   36532453  HIT:   36531277  MISS:       1176  HIT %:    99.9968  MISS %: 0.00321906   MPKI: 0.00588
L1I LOAD      ACCESS:   36532453  HIT:   36531277  MISS:       1176  HIT %:    99.9968  MISS %: 0.00321906   MPKI: 0.00588
L1I PREFETCH  REQUESTED:          0  ISSUED:          0  USEFUL:          0  USELESS:          0
L1I USEFUL LOAD PREFETCHES:          0 PREFETCH ISSUED TO LOWER LEVEL:          0  ACCURACY: -nan
L1I TIMELY PREFETCHES:          0 LATE PREFETCHES: 0 DROPPED PREFETCHES: 0
L1I PREFETCHES SAME FILL-ORIGIN LEVEL: 0 DIFFERENT FILL-ORIGIN LEVEL: 0
L1I AVERAGE MISS LATENCY: 16.2126 cycles
L1I RQ	ACCESS:   54544566	FORWARD:          0	MERGED:   18011596	TO_CACHE:   36532970

BTB TOTAL     ACCESS:   25038739  HIT:   25036273  MISS:       2466  HIT %:    99.9902  MISS %: 0.00984874   MPKI: 0.01233
BTB BRANCH_DIRECT_JUMP	ACCESS:    2061595  HIT:    2061484  MISS:        111
BTB BRANCH_INDIRECT	ACCESS:          0  HIT:          0  MISS:          0
BTB BRANCH_CONDITIONAL	ACCESS:   22920818  HIT:   22920130  MISS:        688
BTB BRANCH_DIRECT_CALL	ACCESS:      28164  HIT:      28084  MISS:         80
BTB BRANCH_INDIRECT_CALL	ACCESS:          0  HIT:          0  MISS:          0
BTB BRANCH_RETURN	ACCESS:      28162  HIT:      26575  MISS:       1587
BTB BRANCH_OTHER ACCESS:          0  HIT:          0  MISS:          0

L2C TOTAL     ACCESS:       1176  HIT:       1158  MISS:         18  HIT %:    98.4694  MISS %:    1.53061   MPKI: 9e-05
L2C LOAD      ACCESS:       1176  HIT:       1158  MISS:         18  HIT %:    98.4694  MISS %:    1.53061   MPKI: 9e-05
L2C DATA LOAD MPKI: 0
L2C INSTRUCTION LOAD MPKI: 9e-05
L2C PREFETCH  REQUESTED:          0  ISSUED:          0  USEFUL:          0  USELESS:          0
L2C USEFUL LOAD PREFETCHES:          0 PREFETCH ISSUED TO LOWER LEVEL:          0  ACCURACY: -nan
L2C TIMELY PREFETCHES:          0 LATE PREFETCHES: 0 DROPPED PREFETCHES: 0
L2C PREFETCHES SAME FILL-ORIGIN LEVEL: 0 DIFFERENT FILL-ORIGIN LEVEL: 0
L2C AVERAGE MISS LATENCY: 144.444 cycles
L2C RQ	ACCESS:       1176	FORWARD:          0	MERGED:          0	TO_CACHE:       1176

L2C Instructions Evicting Data 0
L2C Translations Evicting Data 0
L2C Data Evicting Data 0
L2C Instructions Evicting Instructions 0
L2C Translations Evicting Instructions 0
L2C Data Evicting Instructions 0
L2C Instructions Evicting Translations 0
L2C Translations Evicting Translations 0
L2C Data Evicting Translations 0
L2C Dense regions hint from L2: 0
PSCL5 PREFETCH  REQUESTED:          0  ISSUED:          0  USEFUL:          0  USELESS:          0
PSCL5 USEFUL LOAD PREFETCHES:          0 PREFETCH ISSUED TO LOWER LEVEL:          0  ACCURACY: -nan
PSCL5 TIMELY PREFETCHES:          0 LATE PREFETCHES: 0 DROPPED PREFETCHES: 0
PSCL5 PREFETCHES SAME FILL-ORIGIN LEVEL: 0 DIFFERENT FILL-ORIGIN LEVEL: 0

PSCL4 PREFETCH  REQUESTED:          0  ISSUED:          0  USEFUL:          0  USELESS:          0
PSCL4 USEFUL LOAD PREFETCHES:          0 PREFETCH ISSUED TO LOWER LEVEL:          0  ACCURACY: -nan
PSCL4 TIMELY PREFETCHES:          0 LATE PREFETCHES: 0 DROPPED PREFETCHES: 0
PSCL4 PREFETCHES SAME FILL-ORIGIN LEVEL: 0 DIFFERENT FILL-ORIGIN LEVEL: 0

PSCL3 PREFETCH  REQUESTED:          0  ISSUED:          0  USEFUL:          0  USELESS:          0
PSCL3 USEFUL LOAD PREFETCHES:          0 PREFETCH ISSUED TO LOWER LEVEL:          0  ACCURACY: -nan
PSCL3 TIMELY PREFETCHES:          0 LATE PREFETCHES: 0 DROPPED PREFETCHES: 0
PSCL3 PREFETCHES SAME FILL-ORIGIN LEVEL: 0 DIFFERENT FILL-ORIGIN LEVEL: 0

PSCL2 PREFETCH  REQUESTED:          0  ISSUED:          0  USEFUL:          0  USELESS:          0
PSCL2 USEFUL LOAD PREFETCHES:          0 PREFETCH ISSUED TO LOWER LEVEL:          0  ACCURACY: -nan
PSCL2 TIMELY PREFETCHES:          0 LATE PREFETCHES: 0 DROPPED PREFETCHES: 0
PSCL2 PREFETCHES SAME FILL-ORIGIN LEVEL: 0 DIFFERENT FILL-ORIGIN LEVEL: 0

LLC TOTAL     ACCESS:         18  HIT:          0  MISS:         18  HIT %:          0  MISS %:        100   MPKI: 9e-05
LLC LOAD      ACCESS:         18  HIT:          0  MISS:         18  HIT %:          0  MISS %:        100   MPKI: 9e-05
LLC PREFETCH  REQUESTED:          0  ISSUED:          0  USEFUL:          0  USELESS:          0
LLC USEFUL LOAD PREFETCHES:          0 PREFETCH ISSUED TO LOWER LEVEL:          0  ACCURACY: -nan
LLC TIMELY PREFETCHES:          0 LATE PREFETCHES: 0 DROPPED PREFETCHES: 0
LLC PREFETCHES SAME FILL-ORIGIN LEVEL: 0 DIFFERENT FILL-ORIGIN LEVEL: 0
LLC AVERAGE MISS LATENCY: 114.444 cycles
LLC RQ	ACCESS:         18	FORWARD:          0	MERGED:          0	TO_CACHE:         18

LLC Dense regions hint to LLC: 0

RAW hits: 7507361
Loads Generated: 47459112
Loads sent to L1D: 39951750
Stores Generated: 33779505
Stores sent to L1D: 33779517
Major fault: 0 Minor fault: 57
Allocated PAGES: 57

DRAM Statistics
 CHANNEL 0
 RQ ROW_BUFFER_HIT:         10  ROW_BUFFER_MISS:          8
 DBUS_CONGESTED:          0
 WQ ROW_BUFFER_HIT:          0  ROW_BUFFER_MISS:          0  FULL:          0

 AVG_CONGESTED_CYCLE: -
 All warmup complete: 2
Channel 0 Bank busy for read cycles: 0
Channel 0 Bank busy for write cycles: 0
Channel 0
Rank 0
0banks busy for read cycles: 178660482
0banks busy for write cycles: 0
1banks busy for read cycles: 674
1banks busy for write cycles: 0
2banks busy for read cycles: 513
2banks busy for write cycles: 0
3banks busy for read cycles: 0
3banks busy for write cycles: 0
4banks busy for read cycles: 0
4banks busy for write cycles: 0
5banks busy for read cycles: 0
5banks busy for write cycles: 0
6banks busy for read cycles: 0
6banks busy for write cycles: 0
7banks busy for read cycles: 0
7banks busy for write cycles: 0
8banks busy for read cycles: 0
8banks busy for write cycles: 0

CPU 0 Branch Prediction Accuracy: 99.6206% MPKI: 0.48351 Average ROB Occupancy at Mispredict: 33.7261
Branch types
NOT_BRANCH: 172396929 86.1985%
BRANCH_DIRECT_JUMP: 2061595 1.0308%
BRANCH_INDIRECT: 0 0%
BRANCH_CONDITIONAL: 25484843 12.7424%
BRANCH_DIRECT_CALL: 28164 0.014082%
BRANCH_INDIRECT_CALL: 0 0%
BRANCH_RETURN: 28162 0.014081%
BRANCH_OTHER: 0 0%

DRAM PAGES: 1048576
Allocated PAGES: 57
