
*** ChampSim Multicore Out-of-Order Simulator ***

Warmup Instructions: 50000000
Simulation Instructions: 200000000
Number of CPUs: 1
LLC sets: 2048
LLC ways: 16
Off-chip DRAM Size: 4096 MB Channels: 1 Width: 64-bit Data Rate: 6400 MT/s
argv[0]: ./ChampSim/Berti/bin/multiperspective_perceptron8kb-no-vberti-no-no-no-no-no-lru-lru-lru-srrip-drrip-lru-lru-lru-1core-no
argv[1]: -warmup_instructions
argv[2]: 50000000
argv[3]: -simulation_instructions
argv[4]: 200000000
argv[5]: -traces
argv[6]: traces/spec2k17_ten/649.fotonik3d_s-10881B.champsimtrace.xz
CPU 0 runs traces/spec2k17_ten/649.fotonik3d_s-10881B.champsimtrace.xz
.xz
CPU 0 Multiperspective perceptron branch predictor
BTB has LRU replacement policy
ITLB has LRU replacement policy
DTLB has LRU replacement policy
STLB has LRU replacement policy
L1I has LRU replacement policy
History Sets: 8
History Ways: 16
BERTI Size: 16
BERTI Stride Size: 16
L1D has LRU replacement policy
Initialize SRRIP state for L2C
Initialize DRRIP state for LLC
Heartbeat CPU 0 instructions: 10000003 cycles: 5056963 heartbeat IPC: 1.97747 cumulative IPC: 1.97747 (Simulation time: 0 hr 16 min 28 sec) 
Heartbeat CPU 0 instructions: 20000000 cycles: 10123459 heartbeat IPC: 1.97375 cumulative IPC: 1.97561 (Simulation time: 0 hr 27 min 45 sec) 
Heartbeat CPU 0 instructions: 30000000 cycles: 15196682 heartbeat IPC: 1.97113 cumulative IPC: 1.97412 (Simulation time: 0 hr 37 min 58 sec) 
Heartbeat CPU 0 instructions: 40000002 cycles: 20260106 heartbeat IPC: 1.97495 cumulative IPC: 1.97432 (Simulation time: 0 hr 50 min 4 sec) 
Heartbeat CPU 0 instructions: 50000002 cycles: 25320421 heartbeat IPC: 1.97616 cumulative IPC: 1.97469 (Simulation time: 1 hr 3 min 41 sec) 

Warmup complete CPU 0 instructions: 50000002 cycles: 25320421 (Simulation time: 1 hr 3 min 41 sec) 

Heartbeat CPU 0 instructions: 60000000 cycles: 40103950 heartbeat IPC: 0.676428 cumulative IPC: 0.676428 (Simulation time: 1 hr 16 min 58 sec) 
Heartbeat CPU 0 instructions: 70000000 cycles: 54852341 heartbeat IPC: 0.67804 cumulative IPC: 0.677233 (Simulation time: 1 hr 30 min 0 sec) 
Heartbeat CPU 0 instructions: 80000003 cycles: 69582479 heartbeat IPC: 0.67888 cumulative IPC: 0.677781 (Simulation time: 1 hr 40 min 15 sec) 
Heartbeat CPU 0 instructions: 90000001 cycles: 84377607 heartbeat IPC: 0.675898 cumulative IPC: 0.67731 (Simulation time: 1 hr 52 min 2 sec) 
Heartbeat CPU 0 instructions: 100000000 cycles: 99158371 heartbeat IPC: 0.676555 cumulative IPC: 0.677159 (Simulation time: 2 hr 1 min 48 sec) 
Heartbeat CPU 0 instructions: 110000000 cycles: 113878510 heartbeat IPC: 0.679341 cumulative IPC: 0.677521 (Simulation time: 2 hr 11 min 45 sec) 
Heartbeat CPU 0 instructions: 120000003 cycles: 128660981 heartbeat IPC: 0.676477 cumulative IPC: 0.677372 (Simulation time: 2 hr 23 min 11 sec) 
Heartbeat CPU 0 instructions: 130000000 cycles: 143420177 heartbeat IPC: 0.677543 cumulative IPC: 0.677393 (Simulation time: 2 hr 37 min 34 sec) 
Heartbeat CPU 0 instructions: 140000002 cycles: 158196672 heartbeat IPC: 0.676751 cumulative IPC: 0.677322 (Simulation time: 2 hr 46 min 17 sec) 
Heartbeat CPU 0 instructions: 150000001 cycles: 172974194 heartbeat IPC: 0.676703 cumulative IPC: 0.67726 (Simulation time: 2 hr 59 min 25 sec) 
Heartbeat CPU 0 instructions: 160000001 cycles: 187723099 heartbeat IPC: 0.678016 cumulative IPC: 0.677329 (Simulation time: 3 hr 9 min 15 sec) 
Heartbeat CPU 0 instructions: 170000001 cycles: 202502534 heartbeat IPC: 0.676616 cumulative IPC: 0.677269 (Simulation time: 3 hr 19 min 22 sec) 
Heartbeat CPU 0 instructions: 180000002 cycles: 217251828 heartbeat IPC: 0.677999 cumulative IPC: 0.677325 (Simulation time: 3 hr 27 min 11 sec) 
Heartbeat CPU 0 instructions: 190000000 cycles: 231998655 heartbeat IPC: 0.678112 cumulative IPC: 0.677381 (Simulation time: 3 hr 32 min 35 sec) 
Heartbeat CPU 0 instructions: 200000002 cycles: 246733174 heartbeat IPC: 0.678679 cumulative IPC: 0.677468 (Simulation time: 3 hr 37 min 35 sec) 
Heartbeat CPU 0 instructions: 210000001 cycles: 261492917 heartbeat IPC: 0.677518 cumulative IPC: 0.677471 (Simulation time: 3 hr 41 min 5 sec) 
Heartbeat CPU 0 instructions: 220000000 cycles: 276244793 heartbeat IPC: 0.67788 cumulative IPC: 0.677495 (Simulation time: 3 hr 43 min 51 sec) 
Heartbeat CPU 0 instructions: 230000001 cycles: 290987870 heartbeat IPC: 0.678285 cumulative IPC: 0.677539 (Simulation time: 3 hr 46 min 4 sec) 
Heartbeat CPU 0 instructions: 240000000 cycles: 305739431 heartbeat IPC: 0.677894 cumulative IPC: 0.677557 (Simulation time: 3 hr 47 min 53 sec) 
Heartbeat CPU 0 instructions: 250000000 cycles: 320507571 heartbeat IPC: 0.677133 cumulative IPC: 0.677536 (Simulation time: 3 hr 49 min 43 sec) 
Finished CPU 0 instructions: 200000002 cycles: 295187151 cumulative IPC: 0.677536 (Simulation time: 3 hr 49 min 43 sec) 

ChampSim completed all CPUs

Region of Interest Statistics

CPU 0 cumulative IPC: 0.677536 instructions: 200000002 cycles: 295187151
ITLB TOTAL     ACCESS:   26687494  HIT:   26687494  MISS:          0  HIT %:        100  MISS %:          0   MPKI: 0
ITLB LOAD TRANSLATION ACCESS:   26687494  HIT:   26687494  MISS:          0  HIT %:        100  MISS %:          0   MPKI: 0
ITLB PREFETCH  REQUESTED:          0  ISSUED:          0  USEFUL:          0  USELESS:          0
ITLB USEFUL LOAD PREFETCHES:          0 PREFETCH ISSUED TO LOWER LEVEL:          0  ACCURACY: -nan
ITLB TIMELY PREFETCHES:          0 LATE PREFETCHES: 0 DROPPED PREFETCHES: 0
ITLB PREFETCHES SAME FILL-ORIGIN LEVEL: 0 DIFFERENT FILL-ORIGIN LEVEL: 0
ITLB AVERAGE MISS LATENCY: -nan cycles
ITLB RQ	ACCESS:   28180306	FORWARD:          0	MERGED:    1492812	TO_CACHE:   26687494

DTLB TOTAL     ACCESS:   86736479  HIT:   85705135  MISS:    1031344  HIT %:    98.8109  MISS %:    1.18905   MPKI: 5.15672
DTLB LOAD TRANSLATION ACCESS:   86736479  HIT:   85705135  MISS:    1031344  HIT %:    98.8109  MISS %:    1.18905   MPKI: 5.15672
DTLB PREFETCH  REQUESTED:          0  ISSUED:          0  USEFUL:          0  USELESS:          0
DTLB USEFUL LOAD PREFETCHES:          0 PREFETCH ISSUED TO LOWER LEVEL:          0  ACCURACY: -nan
DTLB TIMELY PREFETCHES:          0 LATE PREFETCHES: 0 DROPPED PREFETCHES: 0
DTLB PREFETCHES SAME FILL-ORIGIN LEVEL: 0 DIFFERENT FILL-ORIGIN LEVEL: 0
DTLB AVERAGE MISS LATENCY: 116.944 cycles
DTLB RQ	ACCESS:   96336914	FORWARD:          0	MERGED:    9553391	TO_CACHE:   86783523

STLB TOTAL     ACCESS:   16911109  HIT:   16232153  MISS:     678956  HIT %:    95.9851  MISS %:    4.01485   MPKI: 3.39478
STLB LOAD TRANSLATION ACCESS:    1031344  HIT:     518320  MISS:     513024  HIT %:    50.2568  MISS %:    49.7432   MPKI: 2.56512
STLB TRANSLATION FROM L1D PREFETCHER ACCESS:   15879765  HIT:   15713833  MISS:     165932  HIT %:    98.9551  MISS %:    1.04493   MPKI: 0.82966
STLB PREFETCH  REQUESTED:          0  ISSUED:          0  USEFUL:     165932  USELESS:          0
STLB USEFUL LOAD PREFETCHES:     165932 PREFETCH ISSUED TO LOWER LEVEL:          0  ACCURACY: inf
STLB TIMELY PREFETCHES:     165932 LATE PREFETCHES: 4433 DROPPED PREFETCHES: 5825506
STLB PREFETCHES SAME FILL-ORIGIN LEVEL: 0 DIFFERENT FILL-ORIGIN LEVEL: 0
STLB AVERAGE MISS LATENCY: 159.063 cycles
STLB RQ	ACCESS:   54816113	FORWARD:          0	MERGED:   32036791	TO_CACHE:   22779322

STLB Hit, L1D data hit: 0
STLB Hit, L2C data hit: 0
STLB Hit, LLC data hit: 0
STLB Hit, LLC data miss: 0
STLB STLB hints to L2: 0
L1D TOTAL     ACCESS:  120074829  HIT:  116104618  MISS:    3970211  HIT %:    96.6936  MISS %:    3.30645   MPKI: 19.8511
L1D LOAD      ACCESS:   83311965  HIT:   81857724  MISS:    1454241  HIT %:    98.2545  MISS %:    1.74554   MPKI: 7.2712
L1D RFO       ACCESS:   12822616  HIT:   12822616  MISS:          0  HIT %:        100  MISS %:          0   MPKI: 0
L1D PREFETCH  ACCESS:   23940248  HIT:   21424278  MISS:    2515970  HIT %:    89.4906  MISS %:    10.5094   MPKI: 12.5798
L1D PREFETCH  REQUESTED:  205478581  ISSUED:  109106026  USEFUL:    2393803  USELESS:     122206
L1D USEFUL LOAD PREFETCHES:    2393803 PREFETCH ISSUED TO LOWER LEVEL:   16084380  ACCURACY: 14.8828
L1D TIMELY PREFETCHES:    2393803 LATE PREFETCHES: 2310 DROPPED PREFETCHES: 15698749
L1D PREFETCHES SAME FILL-ORIGIN LEVEL: 2518280 DIFFERENT FILL-ORIGIN LEVEL: 13566100
L1D AVERAGE MISS LATENCY: 133.547 cycles
L1D RQ	ACCESS:  127600707	FORWARD:          0	MERGED:   44032893	TO_CACHE:   83514297
L1D WQ	ACCESS:   12822617	FORWARD:      53517	MERGED:          0	TO_CACHE:   12822617
L1D PQ	ACCESS:   55321257	FORWARD:          0	MERGED:    1536488	TO_CACHE:   53784769

L1D UNIQUE REGIONS ACCESSED: 0
L1D REGIONS CONFLICTS: 0
L1D Cross Page Prefetch Requests: 40522275
L1D Same Page Prefetch Requests: 43252462
L1D ROI Sum of L1D PQ occupancy: 1891675172
L1D PREFETCHES PUSHED FROM L2C: 0
L1I TOTAL     ACCESS:   28180304  HIT:   28180304  MISS:          0  HIT %:        100  MISS %:          0   MPKI: 0
L1I LOAD      ACCESS:   28180304  HIT:   28180304  MISS:          0  HIT %:        100  MISS %:          0   MPKI: 0
L1I PREFETCH  REQUESTED:          0  ISSUED:          0  USEFUL:          0  USELESS:          0
L1I USEFUL LOAD PREFETCHES:          0 PREFETCH ISSUED TO LOWER LEVEL:          0  ACCURACY: -nan
L1I TIMELY PREFETCHES:          0 LATE PREFETCHES: 0 DROPPED PREFETCHES: 0
L1I PREFETCHES SAME FILL-ORIGIN LEVEL: 0 DIFFERENT FILL-ORIGIN LEVEL: 0
L1I AVERAGE MISS LATENCY: -nan cycles
L1I RQ	ACCESS:   64249463	FORWARD:          0	MERGED:   36069157	TO_CACHE:   28180306

BTB TOTAL     ACCESS:    2243766  HIT:    2243761  MISS:          5  HIT %:    99.9998  MISS %: 0.00022284   MPKI: 2.5e-05
BTB BRANCH_DIRECT_JUMP	ACCESS:     160245  HIT:     160244  MISS:          1
BTB BRANCH_INDIRECT	ACCESS:          0  HIT:          0  MISS:          0
BTB BRANCH_CONDITIONAL	ACCESS:    2083521  HIT:    2083517  MISS:          4
BTB BRANCH_DIRECT_CALL	ACCESS:          0  HIT:          0  MISS:          0
BTB BRANCH_INDIRECT_CALL	ACCESS:          0  HIT:          0  MISS:          0
BTB BRANCH_RETURN	ACCESS:          0  HIT:          0  MISS:          0
BTB BRANCH_OTHER ACCESS:          0  HIT:          0  MISS:          0

L2C TOTAL     ACCESS:   24802895  HIT:   19059806  MISS:    5743089  HIT %:    76.8451  MISS %:    23.1549   MPKI: 28.7154
L2C LOAD      ACCESS:    1451931  HIT:     724225  MISS:     727706  HIT %:    49.8801  MISS %:    50.1199   MPKI: 3.63853
L2C DATA LOAD MPKI: 3.63853
L2C INSTRUCTION LOAD MPKI: 0
L2C PREFETCH  ACCESS:   14897576  HIT:   10036320  MISS:    4861256  HIT %:    67.3688  MISS %:    32.6312   MPKI: 24.3063
L2C DATA PREFETCH MPKI: 24.3063
L2C INSTRUCTION PREFETCH MPKI: 0
L2C WRITEBACK ACCESS:    1942943  HIT:    1875715  MISS:      67228  HIT %:    96.5399  MISS %:    3.46011   MPKI: 0.33614
L2C LOAD TRANSLATION ACCESS:     513222  HIT:     512192  MISS:       1030  HIT %:    99.7993  MISS %:   0.200693   MPKI: 0.00515
L2C TRANSLATION FROM L1D PREFETCHER ACCESS:    5997223  HIT:    5911354  MISS:      85869  HIT %:    98.5682  MISS %:    1.43181   MPKI: 0.429345
L2C PREFETCH  REQUESTED:          0  ISSUED:          0  USEFUL:     809980  USELESS:    4137507
L2C USEFUL LOAD PREFETCHES:     809980 PREFETCH ISSUED TO LOWER LEVEL:    4929131  ACCURACY: 16.4325
L2C TIMELY PREFETCHES:     809980 LATE PREFETCHES: 67875 DROPPED PREFETCHES: 0
L2C PREFETCHES SAME FILL-ORIGIN LEVEL: 3649545 DIFFERENT FILL-ORIGIN LEVEL: 0
L2C AVERAGE MISS LATENCY: 222.194 cycles
L2C RQ	ACCESS:    7962375	FORWARD:          0	MERGED:          0	TO_CACHE:    7962375
L2C WQ	ACCESS:    1942943	FORWARD:          0	MERGED:          0	TO_CACHE:    1942943
L2C PQ	ACCESS:   16084380	FORWARD:          0	MERGED:          5	TO_CACHE:   16084375

L2C Instructions Evicting Data 0
L2C Translations Evicting Data 85918
L2C Data Evicting Data 5504326
L2C Instructions Evicting Instructions 0
L2C Translations Evicting Instructions 0
L2C Data Evicting Instructions 0
L2C Instructions Evicting Translations 0
L2C Translations Evicting Translations 981
L2C Data Evicting Translations 84636
L2C Dense regions hint from L2: 0
PSCL5 TOTAL     ACCESS:    6508894  HIT:    6508894  MISS:          0  HIT %:        100  MISS %:          0   MPKI: 0
PSCL5 LOAD TRANSLATION ACCESS:     513023  HIT:     513023  MISS:          0  HIT %:        100  MISS %:          0   MPKI: 0
PSCL5 TRANSLATION FROM L1D PREFETCHER ACCESS:    5995871  HIT:    5995871  MISS:          0  HIT %:        100  MISS %:          0   MPKI: 0
PSCL5 PREFETCH  REQUESTED:          0  ISSUED:          0  USEFUL:          0  USELESS:          0
PSCL5 USEFUL LOAD PREFETCHES:          0 PREFETCH ISSUED TO LOWER LEVEL:          0  ACCURACY: -nan
PSCL5 TIMELY PREFETCHES:          0 LATE PREFETCHES: 0 DROPPED PREFETCHES: 0
PSCL5 PREFETCHES SAME FILL-ORIGIN LEVEL: 0 DIFFERENT FILL-ORIGIN LEVEL: 0

PSCL4 TOTAL     ACCESS:    6508894  HIT:    6508894  MISS:          0  HIT %:        100  MISS %:          0   MPKI: 0
PSCL4 LOAD TRANSLATION ACCESS:     513023  HIT:     513023  MISS:          0  HIT %:        100  MISS %:          0   MPKI: 0
PSCL4 TRANSLATION FROM L1D PREFETCHER ACCESS:    5995871  HIT:    5995871  MISS:          0  HIT %:        100  MISS %:          0   MPKI: 0
PSCL4 PREFETCH  REQUESTED:          0  ISSUED:          0  USEFUL:          0  USELESS:          0
PSCL4 USEFUL LOAD PREFETCHES:          0 PREFETCH ISSUED TO LOWER LEVEL:          0  ACCURACY: -nan
PSCL4 TIMELY PREFETCHES:          0 LATE PREFETCHES: 0 DROPPED PREFETCHES: 0
PSCL4 PREFETCHES SAME FILL-ORIGIN LEVEL: 0 DIFFERENT FILL-ORIGIN LEVEL: 0

PSCL3 TOTAL     ACCESS:    6508894  HIT:    6508894  MISS:          0  HIT %:        100  MISS %:          0   MPKI: 0
PSCL3 LOAD TRANSLATION ACCESS:     513023  HIT:     513023  MISS:          0  HIT %:        100  MISS %:          0   MPKI: 0
PSCL3 TRANSLATION FROM L1D PREFETCHER ACCESS:    5995871  HIT:    5995871  MISS:          0  HIT %:        100  MISS %:          0   MPKI: 0
PSCL3 PREFETCH  REQUESTED:          0  ISSUED:          0  USEFUL:          0  USELESS:          0
PSCL3 USEFUL LOAD PREFETCHES:          0 PREFETCH ISSUED TO LOWER LEVEL:          0  ACCURACY: -nan
PSCL3 TIMELY PREFETCHES:          0 LATE PREFETCHES: 0 DROPPED PREFETCHES: 0
PSCL3 PREFETCHES SAME FILL-ORIGIN LEVEL: 0 DIFFERENT FILL-ORIGIN LEVEL: 0

PSCL2 TOTAL     ACCESS:    6495181  HIT:    6493972  MISS:       1209  HIT %:    99.9814  MISS %:  0.0186138   MPKI: 0.006045
PSCL2 LOAD TRANSLATION ACCESS:     513035  HIT:     511826  MISS:       1209  HIT %:    99.7643  MISS %:   0.235656   MPKI: 0.006045
PSCL2 TRANSLATION FROM L1D PREFETCHER ACCESS:    5982146  HIT:    5982146  MISS:          0  HIT %:        100  MISS %:          0   MPKI: 0
PSCL2 PREFETCH  REQUESTED:          0  ISSUED:          0  USEFUL:          0  USELESS:          0
PSCL2 USEFUL LOAD PREFETCHES:          0 PREFETCH ISSUED TO LOWER LEVEL:          0  ACCURACY: -nan
PSCL2 TIMELY PREFETCHES:          0 LATE PREFETCHES: 0 DROPPED PREFETCHES: 0
PSCL2 PREFETCHES SAME FILL-ORIGIN LEVEL: 0 DIFFERENT FILL-ORIGIN LEVEL: 0

LLC TOTAL     ACCESS:    7618672  HIT:    2202876  MISS:    5415796  HIT %:    28.9142  MISS %:    71.0858   MPKI: 27.079
LLC LOAD      ACCESS:     659831  HIT:      42444  MISS:     617387  HIT %:    6.43256  MISS %:    93.5674   MPKI: 3.08693
LLC PREFETCH  ACCESS:    4929131  HIT:     246811  MISS:    4682320  HIT %:    5.00719  MISS %:    94.9928   MPKI: 23.4116
LLC WRITEBACK ACCESS:    1942811  HIT:    1908160  MISS:      34651  HIT %:    98.2165  MISS %:    1.78355   MPKI: 0.173255
LLC LOAD TRANSLATION ACCESS:       1030  HIT:        845  MISS:        185  HIT %:    82.0388  MISS %:    17.9612   MPKI: 0.000925
LLC TRANSLATION FROM L1D PREFETCHER ACCESS:      85869  HIT:       4616  MISS:      81253  HIT %:    5.37563  MISS %:    94.6244   MPKI: 0.406265
LLC PREFETCH  REQUESTED:          0  ISSUED:          0  USEFUL:       4300  USELESS:    4759870
LLC USEFUL LOAD PREFETCHES:       4300 PREFETCH ISSUED TO LOWER LEVEL:    4682320  ACCURACY: 0.0918348
LLC TIMELY PREFETCHES:       4300 LATE PREFETCHES: 0 DROPPED PREFETCHES: 0
LLC PREFETCHES SAME FILL-ORIGIN LEVEL: 0 DIFFERENT FILL-ORIGIN LEVEL: 0
LLC AVERAGE MISS LATENCY: 200.607 cycles
LLC RQ	ACCESS:     746729	FORWARD:          0	MERGED:          0	TO_CACHE:     746729
LLC WQ	ACCESS:    1942811	FORWARD:          0	MERGED:          0	TO_CACHE:    1942811
LLC PQ	ACCESS:    4929131	FORWARD:          0	MERGED:          0	TO_CACHE:    4929131

LLC Dense regions hint to LLC: 0

RAW hits: 440805
Loads Generated: 128041520
Loads sent to L1D: 127600707
Stores Generated: 12822620
Stores sent to L1D: 12822617
Major fault: 0 Minor fault: 641201
Allocated PAGES: 641201

DRAM Statistics
 CHANNEL 0
 RQ ROW_BUFFER_HIT:    1708798  ROW_BUFFER_MISS:    3672347
 DBUS_CONGESTED:       1977
 WQ ROW_BUFFER_HIT:     416211  ROW_BUFFER_MISS:    1526284  FULL:          0

 AVG_CONGESTED_CYCLE: 5
 All warmup complete: 2
Channel 0 Bank busy for read cycles: 0
Channel 0 Bank busy for write cycles: 0
Channel 0
Rank 0
0banks busy for read cycles: 607949
0banks busy for write cycles: 163
1banks busy for read cycles: 55090219
1banks busy for write cycles: 513859
2banks busy for read cycles: 55715341
2banks busy for write cycles: 526333
3banks busy for read cycles: 49798589
3banks busy for write cycles: 551602
4banks busy for read cycles: 34756316
4banks busy for write cycles: 600672
5banks busy for read cycles: 19873240
5banks busy for write cycles: 793255
6banks busy for read cycles: 9376746
6banks busy for write cycles: 1867572
7banks busy for read cycles: 3303421
7banks busy for write cycles: 9963789
8banks busy for read cycles: 854023
8banks busy for write cycles: 50994063

CPU 0 Branch Prediction Accuracy: 99.9926% MPKI: 0.00083 Average ROB Occupancy at Mispredict: 342.657
Branch types
NOT_BRANCH: 197595958 98.798%
BRANCH_DIRECT_JUMP: 160245 0.0801225%
BRANCH_INDIRECT: 0 0%
BRANCH_CONDITIONAL: 2243766 1.12188%
BRANCH_DIRECT_CALL: 0 0%
BRANCH_INDIRECT_CALL: 0 0%
BRANCH_RETURN: 0 0%
BRANCH_OTHER: 0 0%

DRAM PAGES: 1048576
Allocated PAGES: 641201
