 (TOTAL 523355 bits 511 Kbits) 
*** ChampSim Multicore Out-of-Order Simulator ***

Warmup Instructions: 50000000
Simulation Instructions: 200000000
Number of CPUs: 1
LLC sets: 2048
LLC ways: 16
Off-chip DRAM Size: 4096 MB Channels: 1 Width: 64-bit Data Rate: 6400 MT/s
argv[0]: ./ChampSim/Berti/bin/tagescl-no-vberti-no-no-no-no-no-lru-lru-lru-srrip-drrip-lru-lru-lru-1core-no
argv[1]: -warmup_instructions
argv[2]: 50000000
argv[3]: -simulation_instructions
argv[4]: 200000000
argv[5]: -traces
argv[6]: traces/spec2k17_ten/625.x264_s-20B.champsimtrace.xz
CPU 0 runs traces/spec2k17_ten/625.x264_s-20B.champsimtrace.xz
.xz
CPU 0 Tage branch predictor
BTB has LRU replacement policy
ITLB has LRU replacement policy
DTLB has LRU replacement policy
STLB has LRU replacement policy
L1I has LRU replacement policy
History Sets: 8
History Ways: 16
BERTI Size: 16
BERTI Stride Size: 16
L1D has LRU replacement policy
Initialize SRRIP state for L2C
Initialize DRRIP state for LLC
Heartbeat CPU 0 instructions: 10000002 cycles: 2660754 heartbeat IPC: 3.75833 cumulative IPC: 3.75833 (Simulation time: 0 hr 3 min 27 sec) 
Heartbeat CPU 0 instructions: 20000003 cycles: 5396984 heartbeat IPC: 3.65466 cumulative IPC: 3.70577 (Simulation time: 0 hr 7 min 51 sec) 
Heartbeat CPU 0 instructions: 30000001 cycles: 8132628 heartbeat IPC: 3.65545 cumulative IPC: 3.68884 (Simulation time: 0 hr 14 min 9 sec) 
Heartbeat CPU 0 instructions: 40000001 cycles: 10869055 heartbeat IPC: 3.6544 cumulative IPC: 3.68017 (Simulation time: 0 hr 20 min 28 sec) 
Heartbeat CPU 0 instructions: 50000003 cycles: 13604188 heartbeat IPC: 3.65613 cumulative IPC: 3.67534 (Simulation time: 0 hr 26 min 0 sec) 

Warmup complete CPU 0 instructions: 50000003 cycles: 13604188 (Simulation time: 0 hr 26 min 0 sec) 

Heartbeat CPU 0 instructions: 60000000 cycles: 25645265 heartbeat IPC: 0.83049 cumulative IPC: 0.83049 (Simulation time: 0 hr 31 min 54 sec) 
Heartbeat CPU 0 instructions: 70000000 cycles: 37629400 heartbeat IPC: 0.834437 cumulative IPC: 0.832459 (Simulation time: 0 hr 37 min 51 sec) 
Heartbeat CPU 0 instructions: 80000000 cycles: 49568843 heartbeat IPC: 0.83756 cumulative IPC: 0.834152 (Simulation time: 0 hr 43 min 39 sec) 
Heartbeat CPU 0 instructions: 90000001 cycles: 63792326 heartbeat IPC: 0.703063 cumulative IPC: 0.797001 (Simulation time: 0 hr 50 min 31 sec) 
Heartbeat CPU 0 instructions: 100000000 cycles: 75389617 heartbeat IPC: 0.86227 cumulative IPC: 0.809252 (Simulation time: 0 hr 59 min 4 sec) 
Heartbeat CPU 0 instructions: 110000000 cycles: 86998293 heartbeat IPC: 0.861425 cumulative IPC: 0.817504 (Simulation time: 1 hr 5 min 33 sec) 
Heartbeat CPU 0 instructions: 120000002 cycles: 100308285 heartbeat IPC: 0.751315 cumulative IPC: 0.807344 (Simulation time: 1 hr 9 min 46 sec) 
Heartbeat CPU 0 instructions: 130000000 cycles: 113555994 heartbeat IPC: 0.754847 cumulative IPC: 0.800386 (Simulation time: 1 hr 13 min 57 sec) 
Heartbeat CPU 0 instructions: 140000002 cycles: 126793726 heartbeat IPC: 0.755417 cumulative IPC: 0.795126 (Simulation time: 1 hr 18 min 18 sec) 
Heartbeat CPU 0 instructions: 150000001 cycles: 139955190 heartbeat IPC: 0.759794 cumulative IPC: 0.791446 (Simulation time: 1 hr 23 min 45 sec) 
Heartbeat CPU 0 instructions: 160000000 cycles: 153172602 heartbeat IPC: 0.756578 cumulative IPC: 0.788144 (Simulation time: 1 hr 28 min 27 sec) 
Heartbeat CPU 0 instructions: 170000001 cycles: 166392269 heartbeat IPC: 0.756449 cumulative IPC: 0.785402 (Simulation time: 1 hr 33 min 10 sec) 
Heartbeat CPU 0 instructions: 180000000 cycles: 179781558 heartbeat IPC: 0.746866 cumulative IPC: 0.782297 (Simulation time: 1 hr 38 min 13 sec) 
Heartbeat CPU 0 instructions: 190000000 cycles: 193193952 heartbeat IPC: 0.745579 cumulative IPC: 0.779554 (Simulation time: 1 hr 42 min 29 sec) 
Heartbeat CPU 0 instructions: 200000000 cycles: 206590110 heartbeat IPC: 0.746483 cumulative IPC: 0.777259 (Simulation time: 1 hr 47 min 14 sec) 
Heartbeat CPU 0 instructions: 210000000 cycles: 219786746 heartbeat IPC: 0.757769 cumulative IPC: 0.776011 (Simulation time: 1 hr 51 min 56 sec) 
Heartbeat CPU 0 instructions: 220000000 cycles: 232926827 heartbeat IPC: 0.76103 cumulative IPC: 0.775114 (Simulation time: 1 hr 56 min 48 sec) 
Heartbeat CPU 0 instructions: 230000000 cycles: 246101668 heartbeat IPC: 0.759022 cumulative IPC: 0.774202 (Simulation time: 2 hr 0 min 5 sec) 
Heartbeat CPU 0 instructions: 240000001 cycles: 259289557 heartbeat IPC: 0.758272 cumulative IPC: 0.773347 (Simulation time: 2 hr 3 min 40 sec) 
Heartbeat CPU 0 instructions: 250000000 cycles: 272420877 heartbeat IPC: 0.761538 cumulative IPC: 0.772748 (Simulation time: 2 hr 7 min 24 sec) 
Finished CPU 0 instructions: 200000001 cycles: 258816692 cumulative IPC: 0.772748 (Simulation time: 2 hr 7 min 24 sec) 

ChampSim completed all CPUs

Region of Interest Statistics

CPU 0 cumulative IPC: 0.772748 instructions: 200000001 cycles: 258816692
ITLB TOTAL     ACCESS:   28246747  HIT:   28246694  MISS:         53  HIT %:    99.9998  MISS %: 0.000187632   MPKI: 0.000265
ITLB LOAD TRANSLATION ACCESS:   28246747  HIT:   28246694  MISS:         53  HIT %:    99.9998  MISS %: 0.000187632   MPKI: 0.000265
ITLB PREFETCH  REQUESTED:          0  ISSUED:          0  USEFUL:          0  USELESS:          0
ITLB USEFUL LOAD PREFETCHES:          0 PREFETCH ISSUED TO LOWER LEVEL:          0  ACCURACY: -nan
ITLB TIMELY PREFETCHES:          0 LATE PREFETCHES: 0 DROPPED PREFETCHES: 0
ITLB PREFETCHES SAME FILL-ORIGIN LEVEL: 0 DIFFERENT FILL-ORIGIN LEVEL: 0
ITLB AVERAGE MISS LATENCY: 230.83 cycles
ITLB RQ	ACCESS:   35879852	FORWARD:          0	MERGED:    7633092	TO_CACHE:   28246760

DTLB TOTAL     ACCESS:   27866332  HIT:   27706798  MISS:     159534  HIT %:    99.4275  MISS %:   0.572497   MPKI: 0.79767
DTLB LOAD TRANSLATION ACCESS:   27866332  HIT:   27706798  MISS:     159534  HIT %:    99.4275  MISS %:   0.572497   MPKI: 0.79767
DTLB PREFETCH  REQUESTED:          0  ISSUED:          0  USEFUL:          0  USELESS:          0
DTLB USEFUL LOAD PREFETCHES:          0 PREFETCH ISSUED TO LOWER LEVEL:          0  ACCURACY: -nan
DTLB TIMELY PREFETCHES:          0 LATE PREFETCHES: 0 DROPPED PREFETCHES: 0
DTLB PREFETCHES SAME FILL-ORIGIN LEVEL: 0 DIFFERENT FILL-ORIGIN LEVEL: 0
DTLB AVERAGE MISS LATENCY: 12.2896 cycles
DTLB RQ	ACCESS:   35199304	FORWARD:          0	MERGED:    7297306	TO_CACHE:   27901998

STLB TOTAL     ACCESS:    6845216  HIT:    6842457  MISS:       2759  HIT %:    99.9597  MISS %:  0.0403055   MPKI: 0.013795
STLB LOAD TRANSLATION ACCESS:     159587  HIT:     156829  MISS:       2758  HIT %:    98.2718  MISS %:    1.72821   MPKI: 0.01379
STLB TRANSLATION FROM L1D PREFETCHER ACCESS:    6685629  HIT:    6685628  MISS:          1  HIT %:        100  MISS %: 1.49575e-05   MPKI: 5e-06
STLB PREFETCH  REQUESTED:          0  ISSUED:          0  USEFUL:          1  USELESS:          0
STLB USEFUL LOAD PREFETCHES:          1 PREFETCH ISSUED TO LOWER LEVEL:          0  ACCURACY: inf
STLB TIMELY PREFETCHES:          1 LATE PREFETCHES: 166 DROPPED PREFETCHES: 82079
STLB PREFETCHES SAME FILL-ORIGIN LEVEL: 0 DIFFERENT FILL-ORIGIN LEVEL: 0
STLB AVERAGE MISS LATENCY: 186.489 cycles
STLB RQ	ACCESS:   17223724	FORWARD:          0	MERGED:   10291530	TO_CACHE:    6932194

STLB Hit, L1D data hit: 0
STLB Hit, L2C data hit: 0
STLB Hit, LLC data hit: 0
STLB Hit, LLC data miss: 0
STLB STLB hints to L2: 0
L1D TOTAL     ACCESS:   49474227  HIT:   49146076  MISS:     328151  HIT %:    99.3367  MISS %:   0.663277   MPKI: 1.64075
L1D LOAD      ACCESS:   19525831  HIT:   19400954  MISS:     124877  HIT %:    99.3605  MISS %:   0.639548   MPKI: 0.624385
L1D RFO       ACCESS:   15338917  HIT:   15254788  MISS:      84129  HIT %:    99.4515  MISS %:   0.548468   MPKI: 0.420645
L1D PREFETCH  ACCESS:   14609479  HIT:   14490334  MISS:     119145  HIT %:    99.1845  MISS %:   0.815532   MPKI: 0.595725
L1D PREFETCH  REQUESTED:   37408023  ISSUED:   36225034  USEFUL:     110548  USELESS:       8501
L1D USEFUL LOAD PREFETCHES:     110548 PREFETCH ISSUED TO LOWER LEVEL:    2310528  ACCURACY: 4.78453
L1D TIMELY PREFETCHES:     110548 LATE PREFETCHES: 7230 DROPPED PREFETCHES: 152493
L1D PREFETCHES SAME FILL-ORIGIN LEVEL: 126403 DIFFERENT FILL-ORIGIN LEVEL: 2184125
L1D AVERAGE MISS LATENCY: 122.238 cycles
L1D RQ	ACCESS:   45918809	FORWARD:          0	MERGED:   26285436	TO_CACHE:   19558543
L1D WQ	ACCESS:   15666418	FORWARD:      74857	MERGED:      25657	TO_CACHE:   15640761
L1D PQ	ACCESS:   19160897	FORWARD:          0	MERGED:    2096733	TO_CACHE:   17064137

L1D UNIQUE REGIONS ACCESSED: 0
L1D REGIONS CONFLICTS: 0
L1D Cross Page Prefetch Requests: 9731269
L1D Same Page Prefetch Requests: 12280316
L1D ROI Sum of L1D PQ occupancy: 269004461
L1D PREFETCHES PUSHED FROM L2C: 0
L1I TOTAL     ACCESS:   35842571  HIT:   35771632  MISS:      70939  HIT %:    99.8021  MISS %:   0.197918   MPKI: 0.354695
L1I LOAD      ACCESS:   35842571  HIT:   35771632  MISS:      70939  HIT %:    99.8021  MISS %:   0.197918   MPKI: 0.354695
L1I PREFETCH  REQUESTED:          0  ISSUED:          0  USEFUL:          0  USELESS:          0
L1I USEFUL LOAD PREFETCHES:          0 PREFETCH ISSUED TO LOWER LEVEL:          0  ACCURACY: -nan
L1I TIMELY PREFETCHES:          0 LATE PREFETCHES: 0 DROPPED PREFETCHES: 0
L1I PREFETCHES SAME FILL-ORIGIN LEVEL: 0 DIFFERENT FILL-ORIGIN LEVEL: 0
L1I AVERAGE MISS LATENCY: 18.111 cycles
L1I RQ	ACCESS:   47270130	FORWARD:          0	MERGED:   11390278	TO_CACHE:   35879852

BTB TOTAL     ACCESS:    6120448  HIT:    5638160  MISS:     482288  HIT %:    92.1201  MISS %:    7.87995   MPKI: 2.41144
BTB BRANCH_DIRECT_JUMP	ACCESS:     153540  HIT:     153384  MISS:        156
BTB BRANCH_INDIRECT	ACCESS:       9706  HIT:       9645  MISS:         61
BTB BRANCH_CONDITIONAL	ACCESS:    4761355  HIT:    4760748  MISS:        607
BTB BRANCH_DIRECT_CALL	ACCESS:     288747  HIT:     288490  MISS:        257
BTB BRANCH_INDIRECT_CALL	ACCESS:     309179  HIT:     305497  MISS:       3682
BTB BRANCH_RETURN	ACCESS:     597921  HIT:     120396  MISS:     477525
BTB BRANCH_OTHER ACCESS:          0  HIT:          0  MISS:          0

L2C TOTAL     ACCESS:    2703250  HIT:    2454786  MISS:     248464  HIT %:    90.8087  MISS %:    9.19131   MPKI: 1.24232
L2C LOAD      ACCESS:     188584  HIT:     146595  MISS:      41989  HIT %:    77.7346  MISS %:    22.2654   MPKI: 0.209945
L2C DATA LOAD MPKI: 0.196925
L2C INSTRUCTION LOAD MPKI: 0.01302
L2C RFO       ACCESS:      84027  HIT:      19745  MISS:      64282  HIT %:    23.4984  MISS %:    76.5016   MPKI: 0.32141
L2C PREFETCH  ACCESS:    2243498  HIT:    2103956  MISS:     139542  HIT %:    93.7802  MISS %:    6.21984   MPKI: 0.69771
L2C DATA PREFETCH MPKI: 0.69771
L2C INSTRUCTION PREFETCH MPKI: 0
L2C WRITEBACK ACCESS:     102128  HIT:     100044  MISS:       2084  HIT %:    97.9594  MISS %:    2.04058   MPKI: 0.01042
L2C LOAD TRANSLATION ACCESS:       2767  HIT:       2386  MISS:        381  HIT %:    86.2306  MISS %:    13.7694   MPKI: 0.001905
L2C TRANSLATION FROM L1D PREFETCHER ACCESS:      82246  HIT:      82060  MISS:        186  HIT %:    99.7738  MISS %:   0.226151   MPKI: 0.00093
L2C PREFETCH  REQUESTED:          0  ISSUED:          0  USEFUL:      24991  USELESS:     112754
L2C USEFUL LOAD PREFETCHES:      24991 PREFETCH ISSUED TO LOWER LEVEL:     144206  ACCURACY: 17.3301
L2C TIMELY PREFETCHES:      24991 LATE PREFETCHES: 4664 DROPPED PREFETCHES: 0
L2C PREFETCHES SAME FILL-ORIGIN LEVEL: 92676 DIFFERENT FILL-ORIGIN LEVEL: 0
L2C AVERAGE MISS LATENCY: 206.923 cycles
L2C RQ	ACCESS:     357728	FORWARD:          0	MERGED:          0	TO_CACHE:     357624
L2C WQ	ACCESS:     102128	FORWARD:        104	MERGED:          0	TO_CACHE:     102128
L2C PQ	ACCESS:    2310045	FORWARD:          0	MERGED:        156	TO_CACHE:    2309889

L2C Instructions Evicting Data 2463
L2C Translations Evicting Data 554
L2C Data Evicting Data 239423
L2C Instructions Evicting Instructions 130
L2C Translations Evicting Instructions 11
L2C Data Evicting Instructions 3214
L2C Instructions Evicting Translations 11
L2C Translations Evicting Translations 2
L2C Data Evicting Translations 572
L2C Dense regions hint from L2: 0
PSCL5 TOTAL     ACCESS:      85004  HIT:      85004  MISS:          0  HIT %:        100  MISS %:          0   MPKI: 0
PSCL5 LOAD TRANSLATION ACCESS:       2758  HIT:       2758  MISS:          0  HIT %:        100  MISS %:          0   MPKI: 0
PSCL5 TRANSLATION FROM L1D PREFETCHER ACCESS:      82246  HIT:      82246  MISS:          0  HIT %:        100  MISS %:          0   MPKI: 0
PSCL5 PREFETCH  REQUESTED:          0  ISSUED:          0  USEFUL:          0  USELESS:          0
PSCL5 USEFUL LOAD PREFETCHES:          0 PREFETCH ISSUED TO LOWER LEVEL:          0  ACCURACY: -nan
PSCL5 TIMELY PREFETCHES:          0 LATE PREFETCHES: 0 DROPPED PREFETCHES: 0
PSCL5 PREFETCHES SAME FILL-ORIGIN LEVEL: 0 DIFFERENT FILL-ORIGIN LEVEL: 0

PSCL4 TOTAL     ACCESS:      85004  HIT:      85004  MISS:          0  HIT %:        100  MISS %:          0   MPKI: 0
PSCL4 LOAD TRANSLATION ACCESS:       2758  HIT:       2758  MISS:          0  HIT %:        100  MISS %:          0   MPKI: 0
PSCL4 TRANSLATION FROM L1D PREFETCHER ACCESS:      82246  HIT:      82246  MISS:          0  HIT %:        100  MISS %:          0   MPKI: 0
PSCL4 PREFETCH  REQUESTED:          0  ISSUED:          0  USEFUL:          0  USELESS:          0
PSCL4 USEFUL LOAD PREFETCHES:          0 PREFETCH ISSUED TO LOWER LEVEL:          0  ACCURACY: -nan
PSCL4 TIMELY PREFETCHES:          0 LATE PREFETCHES: 0 DROPPED PREFETCHES: 0
PSCL4 PREFETCHES SAME FILL-ORIGIN LEVEL: 0 DIFFERENT FILL-ORIGIN LEVEL: 0

PSCL3 TOTAL     ACCESS:      85004  HIT:      85004  MISS:          0  HIT %:        100  MISS %:          0   MPKI: 0
PSCL3 LOAD TRANSLATION ACCESS:       2758  HIT:       2758  MISS:          0  HIT %:        100  MISS %:          0   MPKI: 0
PSCL3 TRANSLATION FROM L1D PREFETCHER ACCESS:      82246  HIT:      82246  MISS:          0  HIT %:        100  MISS %:          0   MPKI: 0
PSCL3 PREFETCH  REQUESTED:          0  ISSUED:          0  USEFUL:          0  USELESS:          0
PSCL3 USEFUL LOAD PREFETCHES:          0 PREFETCH ISSUED TO LOWER LEVEL:          0  ACCURACY: -nan
PSCL3 TIMELY PREFETCHES:          0 LATE PREFETCHES: 0 DROPPED PREFETCHES: 0
PSCL3 PREFETCHES SAME FILL-ORIGIN LEVEL: 0 DIFFERENT FILL-ORIGIN LEVEL: 0

PSCL2 TOTAL     ACCESS:      85004  HIT:      84983  MISS:         21  HIT %:    99.9753  MISS %:  0.0247047   MPKI: 0.000105
PSCL2 LOAD TRANSLATION ACCESS:       2758  HIT:       2737  MISS:         21  HIT %:    99.2386  MISS %:   0.761421   MPKI: 0.000105
PSCL2 TRANSLATION FROM L1D PREFETCHER ACCESS:      82246  HIT:      82246  MISS:          0  HIT %:        100  MISS %:          0   MPKI: 0
PSCL2 PREFETCH  REQUESTED:          0  ISSUED:          0  USEFUL:          0  USELESS:          0
PSCL2 USEFUL LOAD PREFETCHES:          0 PREFETCH ISSUED TO LOWER LEVEL:          0  ACCURACY: -nan
PSCL2 TIMELY PREFETCHES:          0 LATE PREFETCHES: 0 DROPPED PREFETCHES: 0
PSCL2 PREFETCHES SAME FILL-ORIGIN LEVEL: 0 DIFFERENT FILL-ORIGIN LEVEL: 0

LLC TOTAL     ACCESS:     330461  HIT:     126819  MISS:     203642  HIT %:    38.3764  MISS %:    61.6236   MPKI: 1.01821
LLC LOAD      ACCESS:      37327  HIT:       3195  MISS:      34132  HIT %:    8.55949  MISS %:    91.4405   MPKI: 0.17066
LLC RFO       ACCESS:      64280  HIT:        623  MISS:      63657  HIT %:   0.969197  MISS %:    99.0308   MPKI: 0.318285
LLC PREFETCH  ACCESS:     144206  HIT:      41718  MISS:     102488  HIT %:    28.9294  MISS %:    71.0706   MPKI: 0.51244
LLC WRITEBACK ACCESS:      84081  HIT:      81211  MISS:       2870  HIT %:    96.5866  MISS %:    3.41338   MPKI: 0.01435
LLC LOAD TRANSLATION ACCESS:        381  HIT:         47  MISS:        334  HIT %:     12.336  MISS %:     87.664   MPKI: 0.00167
LLC TRANSLATION FROM L1D PREFETCHER ACCESS:        186  HIT:         25  MISS:        161  HIT %:    13.4409  MISS %:    86.5591   MPKI: 0.000805
LLC PREFETCH  REQUESTED:          0  ISSUED:          0  USEFUL:        916  USELESS:      95859
LLC USEFUL LOAD PREFETCHES:        916 PREFETCH ISSUED TO LOWER LEVEL:     102488  ACCURACY: 0.893763
LLC TIMELY PREFETCHES:        916 LATE PREFETCHES: 0 DROPPED PREFETCHES: 0
LLC PREFETCHES SAME FILL-ORIGIN LEVEL: 0 DIFFERENT FILL-ORIGIN LEVEL: 0
LLC AVERAGE MISS LATENCY: 219.05 cycles
LLC RQ	ACCESS:     102174	FORWARD:          0	MERGED:          0	TO_CACHE:     102174
LLC WQ	ACCESS:      84081	FORWARD:          0	MERGED:          0	TO_CACHE:      84081
LLC PQ	ACCESS:     144206	FORWARD:          0	MERGED:          0	TO_CACHE:     144206

LLC Dense regions hint to LLC: 0

RAW hits: 398092
Loads Generated: 46316901
Loads sent to L1D: 45918809
Stores Generated: 15666406
Stores sent to L1D: 15666418
Major fault: 0 Minor fault: 4694
Allocated PAGES: 4694

DRAM Statistics
 CHANNEL 0
 RQ ROW_BUFFER_HIT:      81251  ROW_BUFFER_MISS:     119486
 DBUS_CONGESTED:         87
 WQ ROW_BUFFER_HIT:       9339  ROW_BUFFER_MISS:      73915  FULL:          0

 AVG_CONGESTED_CYCLE: 4
 All warmup complete: 2
Channel 0 Bank busy for read cycles: 0
Channel 0 Bank busy for write cycles: 0
Channel 0
Rank 0
0banks busy for read cycles: 244442534
0banks busy for write cycles: 21211
1banks busy for read cycles: 4491635
1banks busy for write cycles: 2507379
2banks busy for read cycles: 2295049
2banks busy for write cycles: 629480
3banks busy for read cycles: 875340
3banks busy for write cycles: 357494
4banks busy for read cycles: 500129
4banks busy for write cycles: 251963
5banks busy for read cycles: 258737
5banks busy for write cycles: 162745
6banks busy for read cycles: 240252
6banks busy for write cycles: 100667
7banks busy for read cycles: 243148
7banks busy for write cycles: 108461
8banks busy for read cycles: 541391
8banks busy for write cycles: 789078

CPU 0 Branch Prediction Accuracy: 99.8356% MPKI: 0.045245 Average ROB Occupancy at Mispredict: 31.9433
Branch types
NOT_BRANCH: 193136629 96.5683%
BRANCH_DIRECT_JUMP: 153540 0.07677%
BRANCH_INDIRECT: 9706 0.004853%
BRANCH_CONDITIONAL: 5503927 2.75196%
BRANCH_DIRECT_CALL: 288747 0.144373%
BRANCH_INDIRECT_CALL: 309179 0.154589%
BRANCH_RETURN: 597921 0.29896%
BRANCH_OTHER: 0 0%

DRAM PAGES: 1048576
Allocated PAGES: 4694
