 (TOTAL 523355 bits 511 Kbits) 
*** ChampSim Multicore Out-of-Order Simulator ***

Warmup Instructions: 50000000
Simulation Instructions: 200000000
Number of CPUs: 1
LLC sets: 2048
LLC ways: 16
Off-chip DRAM Size: 4096 MB Channels: 1 Width: 64-bit Data Rate: 6400 MT/s
argv[0]: ./ChampSim/Berti/bin/tagescl-no-vberti-no-no-no-no-no-lru-lru-lru-srrip-drrip-lru-lru-lru-1core-no
argv[1]: -warmup_instructions
argv[2]: 50000000
argv[3]: -simulation_instructions
argv[4]: 200000000
argv[5]: -traces
argv[6]: traces/spec2k17_ten/625.x264_s-33B.champsimtrace.xz
CPU 0 runs traces/spec2k17_ten/625.x264_s-33B.champsimtrace.xz
.xz
CPU 0 Tage branch predictor
BTB has LRU replacement policy
ITLB has LRU replacement policy
DTLB has LRU replacement policy
STLB has LRU replacement policy
L1I has LRU replacement policy
History Sets: 8
History Ways: 16
BERTI Size: 16
BERTI Stride Size: 16
L1D has LRU replacement policy
Initialize SRRIP state for L2C
Initialize DRRIP state for LLC
Heartbeat CPU 0 instructions: 10000001 cycles: 2707535 heartbeat IPC: 3.6934 cumulative IPC: 3.6934 (Simulation time: 0 hr 3 min 22 sec) 
Heartbeat CPU 0 instructions: 20000001 cycles: 5416283 heartbeat IPC: 3.69174 cumulative IPC: 3.69257 (Simulation time: 0 hr 7 min 35 sec) 
Heartbeat CPU 0 instructions: 30000000 cycles: 8109727 heartbeat IPC: 3.71272 cumulative IPC: 3.69926 (Simulation time: 0 hr 12 min 58 sec) 
Heartbeat CPU 0 instructions: 40000000 cycles: 10797948 heartbeat IPC: 3.71993 cumulative IPC: 3.70441 (Simulation time: 0 hr 17 min 13 sec) 
Heartbeat CPU 0 instructions: 50000001 cycles: 13484481 heartbeat IPC: 3.72227 cumulative IPC: 3.70797 (Simulation time: 0 hr 21 min 35 sec) 

Warmup complete CPU 0 instructions: 50000001 cycles: 13484481 (Simulation time: 0 hr 21 min 35 sec) 

Heartbeat CPU 0 instructions: 60000000 cycles: 26433384 heartbeat IPC: 0.772266 cumulative IPC: 0.772266 (Simulation time: 0 hr 26 min 27 sec) 
Heartbeat CPU 0 instructions: 70000002 cycles: 39471897 heartbeat IPC: 0.766959 cumulative IPC: 0.769603 (Simulation time: 0 hr 31 min 16 sec) 
Heartbeat CPU 0 instructions: 80000000 cycles: 52481657 heartbeat IPC: 0.768654 cumulative IPC: 0.769286 (Simulation time: 0 hr 36 min 4 sec) 
Heartbeat CPU 0 instructions: 90000002 cycles: 65502303 heartbeat IPC: 0.768011 cumulative IPC: 0.768967 (Simulation time: 0 hr 40 min 28 sec) 
Heartbeat CPU 0 instructions: 100000001 cycles: 78605405 heartbeat IPC: 0.763178 cumulative IPC: 0.767802 (Simulation time: 0 hr 45 min 40 sec) 
Heartbeat CPU 0 instructions: 110000000 cycles: 91831941 heartbeat IPC: 0.756056 cumulative IPC: 0.765819 (Simulation time: 0 hr 49 min 33 sec) 
Heartbeat CPU 0 instructions: 120000002 cycles: 104685359 heartbeat IPC: 0.778003 cumulative IPC: 0.767536 (Simulation time: 0 hr 55 min 16 sec) 
Heartbeat CPU 0 instructions: 130000003 cycles: 117377824 heartbeat IPC: 0.787869 cumulative IPC: 0.77002 (Simulation time: 1 hr 0 min 7 sec) 
Heartbeat CPU 0 instructions: 140000000 cycles: 130055258 heartbeat IPC: 0.788803 cumulative IPC: 0.772063 (Simulation time: 1 hr 4 min 52 sec) 
Heartbeat CPU 0 instructions: 150000001 cycles: 142776811 heartbeat IPC: 0.786068 cumulative IPC: 0.773441 (Simulation time: 1 hr 9 min 13 sec) 
Heartbeat CPU 0 instructions: 160000000 cycles: 155504713 heartbeat IPC: 0.785675 cumulative IPC: 0.774538 (Simulation time: 1 hr 14 min 25 sec) 
Heartbeat CPU 0 instructions: 170000002 cycles: 168337950 heartbeat IPC: 0.779227 cumulative IPC: 0.774926 (Simulation time: 1 hr 19 min 45 sec) 
Heartbeat CPU 0 instructions: 180000001 cycles: 181051083 heartbeat IPC: 0.786588 cumulative IPC: 0.775811 (Simulation time: 1 hr 24 min 29 sec) 
Heartbeat CPU 0 instructions: 190000002 cycles: 193532064 heartbeat IPC: 0.801219 cumulative IPC: 0.777572 (Simulation time: 1 hr 29 min 51 sec) 
Heartbeat CPU 0 instructions: 200000000 cycles: 205961947 heartbeat IPC: 0.804513 cumulative IPC: 0.779312 (Simulation time: 1 hr 34 min 56 sec) 
Heartbeat CPU 0 instructions: 210000000 cycles: 218423432 heartbeat IPC: 0.802473 cumulative IPC: 0.78072 (Simulation time: 1 hr 40 min 14 sec) 
Heartbeat CPU 0 instructions: 220000000 cycles: 230897382 heartbeat IPC: 0.801671 cumulative IPC: 0.781922 (Simulation time: 1 hr 44 min 39 sec) 
Heartbeat CPU 0 instructions: 230000000 cycles: 243640549 heartbeat IPC: 0.784734 cumulative IPC: 0.782078 (Simulation time: 1 hr 49 min 40 sec) 
Heartbeat CPU 0 instructions: 240000003 cycles: 256552262 heartbeat IPC: 0.774491 cumulative IPC: 0.781675 (Simulation time: 1 hr 54 min 22 sec) 
Heartbeat CPU 0 instructions: 250000000 cycles: 269383595 heartbeat IPC: 0.779342 cumulative IPC: 0.781558 (Simulation time: 1 hr 58 min 6 sec) 
Finished CPU 0 instructions: 200000001 cycles: 255899115 cumulative IPC: 0.781558 (Simulation time: 1 hr 58 min 6 sec) 

ChampSim completed all CPUs

Region of Interest Statistics

CPU 0 cumulative IPC: 0.781558 instructions: 200000001 cycles: 255899115
ITLB TOTAL     ACCESS:   28086717  HIT:   28086716  MISS:          1  HIT %:        100  MISS %: 3.5604e-06   MPKI: 5e-06
ITLB LOAD TRANSLATION ACCESS:   28086717  HIT:   28086716  MISS:          1  HIT %:        100  MISS %: 3.5604e-06   MPKI: 5e-06
ITLB PREFETCH  REQUESTED:          0  ISSUED:          0  USEFUL:          0  USELESS:          0
ITLB USEFUL LOAD PREFETCHES:          0 PREFETCH ISSUED TO LOWER LEVEL:          0  ACCURACY: -nan
ITLB TIMELY PREFETCHES:          0 LATE PREFETCHES: 0 DROPPED PREFETCHES: 0
ITLB PREFETCHES SAME FILL-ORIGIN LEVEL: 0 DIFFERENT FILL-ORIGIN LEVEL: 0
ITLB AVERAGE MISS LATENCY: 320 cycles
ITLB RQ	ACCESS:   35405278	FORWARD:          0	MERGED:    7318562	TO_CACHE:   28086716

DTLB TOTAL     ACCESS:   26653489  HIT:   26635039  MISS:      18450  HIT %:    99.9308  MISS %:  0.0692217   MPKI: 0.09225
DTLB LOAD TRANSLATION ACCESS:   26653489  HIT:   26635039  MISS:      18450  HIT %:    99.9308  MISS %:  0.0692217   MPKI: 0.09225
DTLB PREFETCH  REQUESTED:          0  ISSUED:          0  USEFUL:          0  USELESS:          0
DTLB USEFUL LOAD PREFETCHES:          0 PREFETCH ISSUED TO LOWER LEVEL:          0  ACCURACY: -nan
DTLB TIMELY PREFETCHES:          0 LATE PREFETCHES: 0 DROPPED PREFETCHES: 0
DTLB PREFETCHES SAME FILL-ORIGIN LEVEL: 0 DIFFERENT FILL-ORIGIN LEVEL: 0
DTLB AVERAGE MISS LATENCY: 16.8431 cycles
DTLB RQ	ACCESS:   32616046	FORWARD:          0	MERGED:    5961686	TO_CACHE:   26654360

STLB TOTAL     ACCESS:    4861836  HIT:    4860851  MISS:        985  HIT %:    99.9797  MISS %:  0.0202598   MPKI: 0.004925
STLB LOAD TRANSLATION ACCESS:      18451  HIT:      17466  MISS:        985  HIT %:    94.6615  MISS %:    5.33846   MPKI: 0.004925
STLB TRANSLATION FROM L1D PREFETCHER ACCESS:    4843385  HIT:    4843385  MISS:          0  HIT %:        100  MISS %:          0   MPKI: 0
STLB PREFETCH  REQUESTED:          0  ISSUED:          0  USEFUL:          0  USELESS:          0
STLB USEFUL LOAD PREFETCHES:          0 PREFETCH ISSUED TO LOWER LEVEL:          0  ACCURACY: -nan
STLB TIMELY PREFETCHES:          0 LATE PREFETCHES: 7 DROPPED PREFETCHES: 60469
STLB PREFETCHES SAME FILL-ORIGIN LEVEL: 0 DIFFERENT FILL-ORIGIN LEVEL: 0
STLB AVERAGE MISS LATENCY: 147.078 cycles
STLB RQ	ACCESS:   12220813	FORWARD:          0	MERGED:    7296348	TO_CACHE:    4924465

STLB Hit, L1D data hit: 0
STLB Hit, L2C data hit: 0
STLB Hit, LLC data hit: 0
STLB Hit, LLC data miss: 0
STLB STLB hints to L2: 0
L1D TOTAL     ACCESS:   43328109  HIT:   43248455  MISS:      79654  HIT %:    99.8162  MISS %:   0.183839   MPKI: 0.39827
L1D LOAD      ACCESS:   18485321  HIT:   18439634  MISS:      45687  HIT %:    99.7528  MISS %:   0.247153   MPKI: 0.228435
L1D RFO       ACCESS:   14115759  HIT:   14113471  MISS:       2288  HIT %:    99.9838  MISS %:  0.0162088   MPKI: 0.01144
L1D PREFETCH  ACCESS:   10727029  HIT:   10695350  MISS:      31679  HIT %:    99.7047  MISS %:   0.295319   MPKI: 0.158395
L1D PREFETCH  REQUESTED:   26178902  ISSUED:   26012247  USEFUL:      25909  USELESS:       5705
L1D USEFUL LOAD PREFETCHES:      25909 PREFETCH ISSUED TO LOWER LEVEL:    1373092  ACCURACY: 1.88691
L1D TIMELY PREFETCHES:      25909 LATE PREFETCHES: 2074 DROPPED PREFETCHES: 126116
L1D PREFETCHES SAME FILL-ORIGIN LEVEL: 33758 DIFFERENT FILL-ORIGIN LEVEL: 1339334
L1D AVERAGE MISS LATENCY: 75.7764 cycles
L1D RQ	ACCESS:   47053150	FORWARD:          0	MERGED:   28463476	TO_CACHE:   18499056
L1D WQ	ACCESS:   14133461	FORWARD:      90618	MERGED:      16471	TO_CACHE:   14116990
L1D PQ	ACCESS:   13809885	FORWARD:          0	MERGED:    1607523	TO_CACHE:   12202362

L1D UNIQUE REGIONS ACCESSED: 0
L1D REGIONS CONFLICTS: 0
L1D Cross Page Prefetch Requests: 8091025
L1D Same Page Prefetch Requests: 10002687
L1D ROI Sum of L1D PQ occupancy: 183402800
L1D PREFETCHES PUSHED FROM L2C: 0
L1I TOTAL     ACCESS:   35405264  HIT:   35405219  MISS:         45  HIT %:    99.9999  MISS %:  0.0001271   MPKI: 0.000225
L1I LOAD      ACCESS:   35405264  HIT:   35405219  MISS:         45  HIT %:    99.9999  MISS %:  0.0001271   MPKI: 0.000225
L1I PREFETCH  REQUESTED:          0  ISSUED:          0  USEFUL:          0  USELESS:          0
L1I USEFUL LOAD PREFETCHES:          0 PREFETCH ISSUED TO LOWER LEVEL:          0  ACCURACY: -nan
L1I TIMELY PREFETCHES:          0 LATE PREFETCHES: 0 DROPPED PREFETCHES: 0
L1I PREFETCHES SAME FILL-ORIGIN LEVEL: 0 DIFFERENT FILL-ORIGIN LEVEL: 0
L1I AVERAGE MISS LATENCY: 203.8 cycles
L1I RQ	ACCESS:   47741486	FORWARD:          0	MERGED:   12336208	TO_CACHE:   35405278

BTB TOTAL     ACCESS:    7229807  HIT:    6731727  MISS:     498080  HIT %:    93.1107  MISS %:    6.88926   MPKI: 2.4904
BTB BRANCH_DIRECT_JUMP	ACCESS:     158358  HIT:     158332  MISS:         26
BTB BRANCH_INDIRECT	ACCESS:      10447  HIT:      10446  MISS:          1
BTB BRANCH_CONDITIONAL	ACCESS:    5888112  HIT:    5888018  MISS:         94
BTB BRANCH_DIRECT_CALL	ACCESS:     294615  HIT:     294595  MISS:         20
BTB BRANCH_INDIRECT_CALL	ACCESS:     291830  HIT:     291778  MISS:         52
BTB BRANCH_RETURN	ACCESS:     586445  HIT:      88558  MISS:     497887
BTB BRANCH_OTHER ACCESS:          0  HIT:          0  MISS:          0

L2C TOTAL     ACCESS:    1452088  HIT:    1383540  MISS:      68548  HIT %:    95.2793  MISS %:    4.72065   MPKI: 0.34274
L2C LOAD      ACCESS:      43658  HIT:      18878  MISS:      24780  HIT %:    43.2406  MISS %:    56.7594   MPKI: 0.1239
L2C DATA LOAD MPKI: 0.123675
L2C INSTRUCTION LOAD MPKI: 0.000225
L2C RFO       ACCESS:       2288  HIT:         80  MISS:       2208  HIT %:     3.4965  MISS %:    96.5035   MPKI: 0.01104
L2C PREFETCH  ACCESS:    1342360  HIT:    1301172  MISS:      41188  HIT %:    96.9317  MISS %:    3.06833   MPKI: 0.20594
L2C DATA PREFETCH MPKI: 0.20594
L2C INSTRUCTION PREFETCH MPKI: 0
L2C WRITEBACK ACCESS:       2321  HIT:       2154  MISS:        167  HIT %:    92.8048  MISS %:    7.19517   MPKI: 0.000835
L2C LOAD TRANSLATION ACCESS:        985  HIT:        849  MISS:        136  HIT %:    86.1929  MISS %:    13.8071   MPKI: 0.00068
L2C TRANSLATION FROM L1D PREFETCHER ACCESS:      60476  HIT:      60407  MISS:         69  HIT %:    99.8859  MISS %:   0.114095   MPKI: 0.000345
L2C PREFETCH  REQUESTED:          0  ISSUED:          0  USEFUL:      14410  USELESS:      29109
L2C USEFUL LOAD PREFETCHES:      14410 PREFETCH ISSUED TO LOWER LEVEL:      45317  ACCURACY: 31.7982
L2C TIMELY PREFETCHES:      14410 LATE PREFETCHES: 4129 DROPPED PREFETCHES: 0
L2C PREFETCHES SAME FILL-ORIGIN LEVEL: 38847 DIFFERENT FILL-ORIGIN LEVEL: 0
L2C AVERAGE MISS LATENCY: 138.86 cycles
L2C RQ	ACCESS:     107407	FORWARD:          0	MERGED:          0	TO_CACHE:     107407
L2C WQ	ACCESS:       2321	FORWARD:          0	MERGED:          0	TO_CACHE:       2321
L2C PQ	ACCESS:    1373087	FORWARD:          0	MERGED:         18	TO_CACHE:    1373069

L2C Instructions Evicting Data 45
L2C Translations Evicting Data 204
L2C Data Evicting Data 67878
L2C Instructions Evicting Instructions 0
L2C Translations Evicting Instructions 0
L2C Data Evicting Instructions 59
L2C Instructions Evicting Translations 0
L2C Translations Evicting Translations 1
L2C Data Evicting Translations 194
L2C Dense regions hint from L2: 0
PSCL5 TOTAL     ACCESS:      61461  HIT:      61461  MISS:          0  HIT %:        100  MISS %:          0   MPKI: 0
PSCL5 LOAD TRANSLATION ACCESS:        985  HIT:        985  MISS:          0  HIT %:        100  MISS %:          0   MPKI: 0
PSCL5 TRANSLATION FROM L1D PREFETCHER ACCESS:      60476  HIT:      60476  MISS:          0  HIT %:        100  MISS %:          0   MPKI: 0
PSCL5 PREFETCH  REQUESTED:          0  ISSUED:          0  USEFUL:          0  USELESS:          0
PSCL5 USEFUL LOAD PREFETCHES:          0 PREFETCH ISSUED TO LOWER LEVEL:          0  ACCURACY: -nan
PSCL5 TIMELY PREFETCHES:          0 LATE PREFETCHES: 0 DROPPED PREFETCHES: 0
PSCL5 PREFETCHES SAME FILL-ORIGIN LEVEL: 0 DIFFERENT FILL-ORIGIN LEVEL: 0

PSCL4 TOTAL     ACCESS:      61461  HIT:      61461  MISS:          0  HIT %:        100  MISS %:          0   MPKI: 0
PSCL4 LOAD TRANSLATION ACCESS:        985  HIT:        985  MISS:          0  HIT %:        100  MISS %:          0   MPKI: 0
PSCL4 TRANSLATION FROM L1D PREFETCHER ACCESS:      60476  HIT:      60476  MISS:          0  HIT %:        100  MISS %:          0   MPKI: 0
PSCL4 PREFETCH  REQUESTED:          0  ISSUED:          0  USEFUL:          0  USELESS:          0
PSCL4 USEFUL LOAD PREFETCHES:          0 PREFETCH ISSUED TO LOWER LEVEL:          0  ACCURACY: -nan
PSCL4 TIMELY PREFETCHES:          0 LATE PREFETCHES: 0 DROPPED PREFETCHES: 0
PSCL4 PREFETCHES SAME FILL-ORIGIN LEVEL: 0 DIFFERENT FILL-ORIGIN LEVEL: 0

PSCL3 TOTAL     ACCESS:      61461  HIT:      61461  MISS:          0  HIT %:        100  MISS %:          0   MPKI: 0
PSCL3 LOAD TRANSLATION ACCESS:        985  HIT:        985  MISS:          0  HIT %:        100  MISS %:          0   MPKI: 0
PSCL3 TRANSLATION FROM L1D PREFETCHER ACCESS:      60476  HIT:      60476  MISS:          0  HIT %:        100  MISS %:          0   MPKI: 0
PSCL3 PREFETCH  REQUESTED:          0  ISSUED:          0  USEFUL:          0  USELESS:          0
PSCL3 USEFUL LOAD PREFETCHES:          0 PREFETCH ISSUED TO LOWER LEVEL:          0  ACCURACY: -nan
PSCL3 TIMELY PREFETCHES:          0 LATE PREFETCHES: 0 DROPPED PREFETCHES: 0
PSCL3 PREFETCHES SAME FILL-ORIGIN LEVEL: 0 DIFFERENT FILL-ORIGIN LEVEL: 0

PSCL2 TOTAL     ACCESS:      61383  HIT:      61372  MISS:         11  HIT %:    99.9821  MISS %:  0.0179203   MPKI: 5.5e-05
PSCL2 LOAD TRANSLATION ACCESS:        985  HIT:        974  MISS:         11  HIT %:    98.8832  MISS %:    1.11675   MPKI: 5.5e-05
PSCL2 TRANSLATION FROM L1D PREFETCHER ACCESS:      60398  HIT:      60398  MISS:          0  HIT %:        100  MISS %:          0   MPKI: 0
PSCL2 PREFETCH  REQUESTED:          0  ISSUED:          0  USEFUL:          0  USELESS:          0
PSCL2 USEFUL LOAD PREFETCHES:          0 PREFETCH ISSUED TO LOWER LEVEL:          0  ACCURACY: -nan
PSCL2 TIMELY PREFETCHES:          0 LATE PREFETCHES: 0 DROPPED PREFETCHES: 0
PSCL2 PREFETCHES SAME FILL-ORIGIN LEVEL: 0 DIFFERENT FILL-ORIGIN LEVEL: 0

LLC TOTAL     ACCESS:      70624  HIT:       6773  MISS:      63851  HIT %:    9.59022  MISS %:    90.4098   MPKI: 0.319255
LLC LOAD      ACCESS:      20651  HIT:        586  MISS:      20065  HIT %:    2.83763  MISS %:    97.1624   MPKI: 0.100325
LLC RFO       ACCESS:       2208  HIT:         19  MISS:       2189  HIT %:   0.860507  MISS %:    99.1395   MPKI: 0.010945
LLC PREFETCH  ACCESS:      45317  HIT:       3942  MISS:      41375  HIT %:    8.69872  MISS %:    91.3013   MPKI: 0.206875
LLC WRITEBACK ACCESS:       2243  HIT:       2202  MISS:         41  HIT %:    98.1721  MISS %:    1.82791   MPKI: 0.000205
LLC LOAD TRANSLATION ACCESS:        136  HIT:         21  MISS:        115  HIT %:    15.4412  MISS %:    84.5588   MPKI: 0.000575
LLC TRANSLATION FROM L1D PREFETCHER ACCESS:         69  HIT:          3  MISS:         66  HIT %:    4.34783  MISS %:    95.6522   MPKI: 0.00033
LLC PREFETCH  REQUESTED:          0  ISSUED:          0  USEFUL:        256  USELESS:      33212
LLC USEFUL LOAD PREFETCHES:        256 PREFETCH ISSUED TO LOWER LEVEL:      41375  ACCURACY: 0.618731
LLC TIMELY PREFETCHES:        256 LATE PREFETCHES: 0 DROPPED PREFETCHES: 0
LLC PREFETCHES SAME FILL-ORIGIN LEVEL: 0 DIFFERENT FILL-ORIGIN LEVEL: 0
LLC AVERAGE MISS LATENCY: 120.873 cycles
LLC RQ	ACCESS:      23064	FORWARD:          0	MERGED:          0	TO_CACHE:      23064
LLC WQ	ACCESS:       2243	FORWARD:          0	MERGED:          0	TO_CACHE:       2243
LLC PQ	ACCESS:      45317	FORWARD:          0	MERGED:          0	TO_CACHE:      45317

LLC Dense regions hint to LLC: 0

RAW hits: 535024
Loads Generated: 47588174
Loads sent to L1D: 47053150
Stores Generated: 14133446
Stores sent to L1D: 14133461
Major fault: 0 Minor fault: 1314
Allocated PAGES: 1314

DRAM Statistics
 CHANNEL 0
 RQ ROW_BUFFER_HIT:      35679  ROW_BUFFER_MISS:      28131
 DBUS_CONGESTED:         25
 WQ ROW_BUFFER_HIT:        102  ROW_BUFFER_MISS:       1380  FULL:          0

 AVG_CONGESTED_CYCLE: 4
 All warmup complete: 2
Channel 0 Bank busy for read cycles: 0
Channel 0 Bank busy for write cycles: 0
Channel 0
Rank 0
0banks busy for read cycles: 252749696
0banks busy for write cycles: 1015
1banks busy for read cycles: 1703564
1banks busy for write cycles: 126381
2banks busy for read cycles: 566416
2banks busy for write cycles: 35827
3banks busy for read cycles: 253900
3banks busy for write cycles: 10366
4banks busy for read cycles: 148871
4banks busy for write cycles: 3318
5banks busy for read cycles: 114772
5banks busy for write cycles: 1000
6banks busy for read cycles: 90777
6banks busy for write cycles: 253
7banks busy for read cycles: 48260
7banks busy for write cycles: 216
8banks busy for read cycles: 44233
8banks busy for write cycles: 251

CPU 0 Branch Prediction Accuracy: 99.7359% MPKI: 0.08943 Average ROB Occupancy at Mispredict: 44.0119
Branch types
NOT_BRANCH: 191885537 95.9428%
BRANCH_DIRECT_JUMP: 158358 0.079179%
BRANCH_INDIRECT: 10447 0.0052235%
BRANCH_CONDITIONAL: 6772424 3.38621%
BRANCH_DIRECT_CALL: 294615 0.147307%
BRANCH_INDIRECT_CALL: 291830 0.145915%
BRANCH_RETURN: 586445 0.293222%
BRANCH_OTHER: 0 0%

DRAM PAGES: 1048576
Allocated PAGES: 1314
