 (TOTAL 523355 bits 511 Kbits) 
*** ChampSim Multicore Out-of-Order Simulator ***

Warmup Instructions: 50000000
Simulation Instructions: 200000000
Number of CPUs: 1
LLC sets: 2048
LLC ways: 16
Off-chip DRAM Size: 4096 MB Channels: 1 Width: 64-bit Data Rate: 6400 MT/s
argv[0]: ./ChampSim/Berti/bin/tagescl-no-vberti-no-no-no-no-no-lru-lru-lru-srrip-drrip-lru-lru-lru-1core-no
argv[1]: -warmup_instructions
argv[2]: 50000000
argv[3]: -simulation_instructions
argv[4]: 200000000
argv[5]: -traces
argv[6]: traces/spec2k17_ten/625.x264_s-39B.champsimtrace.xz
CPU 0 runs traces/spec2k17_ten/625.x264_s-39B.champsimtrace.xz
.xz
CPU 0 Tage branch predictor
BTB has LRU replacement policy
ITLB has LRU replacement policy
DTLB has LRU replacement policy
STLB has LRU replacement policy
L1I has LRU replacement policy
History Sets: 8
History Ways: 16
BERTI Size: 16
BERTI Stride Size: 16
L1D has LRU replacement policy
Initialize SRRIP state for L2C
Initialize DRRIP state for LLC
Heartbeat CPU 0 instructions: 10000003 cycles: 2725235 heartbeat IPC: 3.66941 cumulative IPC: 3.66941 (Simulation time: 0 hr 4 min 11 sec) 
Heartbeat CPU 0 instructions: 20000002 cycles: 5442666 heartbeat IPC: 3.67995 cumulative IPC: 3.67467 (Simulation time: 0 hr 9 min 59 sec) 
Heartbeat CPU 0 instructions: 30000003 cycles: 8165248 heartbeat IPC: 3.67298 cumulative IPC: 3.67411 (Simulation time: 0 hr 15 min 51 sec) 
Heartbeat CPU 0 instructions: 40000000 cycles: 10882404 heartbeat IPC: 3.68032 cumulative IPC: 3.67566 (Simulation time: 0 hr 21 min 45 sec) 
Heartbeat CPU 0 instructions: 50000003 cycles: 13605489 heartbeat IPC: 3.67231 cumulative IPC: 3.67499 (Simulation time: 0 hr 26 min 51 sec) 

Warmup complete CPU 0 instructions: 50000003 cycles: 13605489 (Simulation time: 0 hr 26 min 51 sec) 

Heartbeat CPU 0 instructions: 60000000 cycles: 26534251 heartbeat IPC: 0.773469 cumulative IPC: 0.773469 (Simulation time: 0 hr 32 min 49 sec) 
Heartbeat CPU 0 instructions: 70000002 cycles: 39832100 heartbeat IPC: 0.752001 cumulative IPC: 0.762584 (Simulation time: 0 hr 37 min 38 sec) 
Heartbeat CPU 0 instructions: 80000000 cycles: 52809964 heartbeat IPC: 0.770543 cumulative IPC: 0.765219 (Simulation time: 0 hr 43 min 9 sec) 
Heartbeat CPU 0 instructions: 90000002 cycles: 66093546 heartbeat IPC: 0.752809 cumulative IPC: 0.762078 (Simulation time: 0 hr 47 min 48 sec) 
Heartbeat CPU 0 instructions: 100000001 cycles: 79204482 heartbeat IPC: 0.762722 cumulative IPC: 0.762207 (Simulation time: 0 hr 53 min 16 sec) 
Heartbeat CPU 0 instructions: 110000000 cycles: 92175410 heartbeat IPC: 0.770955 cumulative IPC: 0.763651 (Simulation time: 0 hr 59 min 14 sec) 
Heartbeat CPU 0 instructions: 120000001 cycles: 107501579 heartbeat IPC: 0.652479 cumulative IPC: 0.745505 (Simulation time: 1 hr 6 min 11 sec) 
Heartbeat CPU 0 instructions: 130000002 cycles: 119025153 heartbeat IPC: 0.867786 cumulative IPC: 0.758872 (Simulation time: 1 hr 14 min 27 sec) 
Heartbeat CPU 0 instructions: 140000000 cycles: 130437767 heartbeat IPC: 0.876223 cumulative IPC: 0.770335 (Simulation time: 1 hr 21 min 3 sec) 
Heartbeat CPU 0 instructions: 150000000 cycles: 142957305 heartbeat IPC: 0.798752 cumulative IPC: 0.773085 (Simulation time: 1 hr 26 min 33 sec) 
Heartbeat CPU 0 instructions: 160000001 cycles: 154928777 heartbeat IPC: 0.835319 cumulative IPC: 0.778357 (Simulation time: 1 hr 32 min 32 sec) 
Heartbeat CPU 0 instructions: 170000001 cycles: 166632676 heartbeat IPC: 0.854416 cumulative IPC: 0.784174 (Simulation time: 1 hr 38 min 19 sec) 
Heartbeat CPU 0 instructions: 180000000 cycles: 178644208 heartbeat IPC: 0.832533 cumulative IPC: 0.787694 (Simulation time: 1 hr 43 min 19 sec) 
Heartbeat CPU 0 instructions: 190000002 cycles: 191147629 heartbeat IPC: 0.799781 cumulative IPC: 0.788545 (Simulation time: 1 hr 48 min 15 sec) 
Heartbeat CPU 0 instructions: 200000001 cycles: 203242101 heartbeat IPC: 0.826824 cumulative IPC: 0.790986 (Simulation time: 1 hr 53 min 44 sec) 
Heartbeat CPU 0 instructions: 210000001 cycles: 215746959 heartbeat IPC: 0.799689 cumulative IPC: 0.791525 (Simulation time: 1 hr 58 min 37 sec) 
Heartbeat CPU 0 instructions: 220000000 cycles: 227844673 heartbeat IPC: 0.826602 cumulative IPC: 0.793506 (Simulation time: 2 hr 2 min 53 sec) 
Heartbeat CPU 0 instructions: 230000001 cycles: 239970927 heartbeat IPC: 0.824657 cumulative IPC: 0.795174 (Simulation time: 2 hr 6 min 32 sec) 
Heartbeat CPU 0 instructions: 240000000 cycles: 252423163 heartbeat IPC: 0.803069 cumulative IPC: 0.795586 (Simulation time: 2 hr 10 min 34 sec) 
Heartbeat CPU 0 instructions: 250000002 cycles: 264621198 heartbeat IPC: 0.819804 cumulative IPC: 0.796763 (Simulation time: 2 hr 14 min 19 sec) 
Finished CPU 0 instructions: 200000001 cycles: 251015710 cumulative IPC: 0.796763 (Simulation time: 2 hr 14 min 19 sec) 

ChampSim completed all CPUs

Region of Interest Statistics

CPU 0 cumulative IPC: 0.796763 instructions: 200000001 cycles: 251015710
ITLB TOTAL     ACCESS:   28540091  HIT:   28538421  MISS:       1670  HIT %:    99.9941  MISS %: 0.00585142   MPKI: 0.00835
ITLB LOAD TRANSLATION ACCESS:   28540091  HIT:   28538421  MISS:       1670  HIT %:    99.9941  MISS %: 0.00585142   MPKI: 0.00835
ITLB PREFETCH  REQUESTED:          0  ISSUED:          0  USEFUL:          0  USELESS:          0
ITLB USEFUL LOAD PREFETCHES:          0 PREFETCH ISSUED TO LOWER LEVEL:          0  ACCURACY: -nan
ITLB TIMELY PREFETCHES:          0 LATE PREFETCHES: 0 DROPPED PREFETCHES: 0
ITLB PREFETCHES SAME FILL-ORIGIN LEVEL: 0 DIFFERENT FILL-ORIGIN LEVEL: 0
ITLB AVERAGE MISS LATENCY: 17.7425 cycles
ITLB RQ	ACCESS:   36018130	FORWARD:          0	MERGED:    7477618	TO_CACHE:   28540512

DTLB TOTAL     ACCESS:   29220125  HIT:   28971542  MISS:     248583  HIT %:    99.1493  MISS %:   0.850725   MPKI: 1.24291
DTLB LOAD TRANSLATION ACCESS:   29220125  HIT:   28971542  MISS:     248583  HIT %:    99.1493  MISS %:   0.850725   MPKI: 1.24291
DTLB PREFETCH  REQUESTED:          0  ISSUED:          0  USEFUL:          0  USELESS:          0
DTLB USEFUL LOAD PREFETCHES:          0 PREFETCH ISSUED TO LOWER LEVEL:          0  ACCURACY: -nan
DTLB TIMELY PREFETCHES:          0 LATE PREFETCHES: 0 DROPPED PREFETCHES: 0
DTLB PREFETCHES SAME FILL-ORIGIN LEVEL: 0 DIFFERENT FILL-ORIGIN LEVEL: 0
DTLB AVERAGE MISS LATENCY: 11.6278 cycles
DTLB RQ	ACCESS:   36313120	FORWARD:          0	MERGED:    7036657	TO_CACHE:   29276463

STLB TOTAL     ACCESS:    7336507  HIT:    7332508  MISS:       3999  HIT %:    99.9455  MISS %:  0.0545082   MPKI: 0.019995
STLB LOAD TRANSLATION ACCESS:     250253  HIT:     246277  MISS:       3976  HIT %:    98.4112  MISS %:    1.58879   MPKI: 0.01988
STLB TRANSLATION FROM L1D PREFETCHER ACCESS:    7086254  HIT:    7086231  MISS:         23  HIT %:    99.9997  MISS %: 0.000324572   MPKI: 0.000115
STLB PREFETCH  REQUESTED:          0  ISSUED:          0  USEFUL:         18  USELESS:          0
STLB USEFUL LOAD PREFETCHES:         18 PREFETCH ISSUED TO LOWER LEVEL:          0  ACCURACY: inf
STLB TIMELY PREFETCHES:         18 LATE PREFETCHES: 178 DROPPED PREFETCHES: 93119
STLB PREFETCHES SAME FILL-ORIGIN LEVEL: 0 DIFFERENT FILL-ORIGIN LEVEL: 0
STLB AVERAGE MISS LATENCY: 164.658 cycles
STLB RQ	ACCESS:   24921874	FORWARD:          0	MERGED:   17485029	TO_CACHE:    7436845

STLB Hit, L1D data hit: 0
STLB Hit, L2C data hit: 0
STLB Hit, LLC data hit: 0
STLB Hit, LLC data miss: 0
STLB STLB hints to L2: 0
L1D TOTAL     ACCESS:   58056531  HIT:   57515595  MISS:     540936  HIT %:    99.0683  MISS %:    0.93174   MPKI: 2.70468
L1D LOAD      ACCESS:   23201879  HIT:   22967594  MISS:     234285  HIT %:    98.9902  MISS %:    1.00977   MPKI: 1.17142
L1D RFO       ACCESS:   12640823  HIT:   12490043  MISS:     150780  HIT %:    98.8072  MISS %:     1.1928   MPKI: 0.7539
L1D PREFETCH  ACCESS:   22213829  HIT:   22057958  MISS:     155871  HIT %:    99.2983  MISS %:   0.701685   MPKI: 0.779355
L1D PREFETCH  REQUESTED:   63093372  ISSUED:   51444327  USEFUL:     134419  USELESS:      21483
L1D USEFUL LOAD PREFETCHES:     134419 PREFETCH ISSUED TO LOWER LEVEL:    2322801  ACCURACY: 5.78694
L1D TIMELY PREFETCHES:     134419 LATE PREFETCHES: 8846 DROPPED PREFETCHES: 186339
L1D PREFETCHES SAME FILL-ORIGIN LEVEL: 166430 DIFFERENT FILL-ORIGIN LEVEL: 2156371
L1D AVERAGE MISS LATENCY: 96.5957 cycles
L1D RQ	ACCESS:   41891252	FORWARD:          0	MERGED:   18583029	TO_CACHE:   23236510
L1D WQ	ACCESS:   13113790	FORWARD:      71751	MERGED:      37180	TO_CACHE:   13076610
L1D PQ	ACCESS:   26772706	FORWARD:          0	MERGED:    2101047	TO_CACHE:   24671621

L1D UNIQUE REGIONS ACCESSED: 0
L1D REGIONS CONFLICTS: 0
L1D Cross Page Prefetch Requests: 8538337
L1D Same Page Prefetch Requests: 20738780
L1D ROI Sum of L1D PQ occupancy: 380862964
L1D PREFETCHES PUSHED FROM L2C: 0
L1I TOTAL     ACCESS:   35610932  HIT:   34794227  MISS:     816705  HIT %:    97.7066  MISS %:    2.29341   MPKI: 4.08352
L1I LOAD      ACCESS:   35610932  HIT:   34794227  MISS:     816705  HIT %:    97.7066  MISS %:    2.29341   MPKI: 4.08352
L1I PREFETCH  REQUESTED:          0  ISSUED:          0  USEFUL:          0  USELESS:          0
L1I USEFUL LOAD PREFETCHES:          0 PREFETCH ISSUED TO LOWER LEVEL:          0  ACCURACY: -nan
L1I TIMELY PREFETCHES:          0 LATE PREFETCHES: 0 DROPPED PREFETCHES: 0
L1I PREFETCHES SAME FILL-ORIGIN LEVEL: 0 DIFFERENT FILL-ORIGIN LEVEL: 0
L1I AVERAGE MISS LATENCY: 14.9885 cycles
L1I RQ	ACCESS:   46975739	FORWARD:          0	MERGED:   10957609	TO_CACHE:   36018130

BTB TOTAL     ACCESS:    7106771  HIT:    6730891  MISS:     375880  HIT %:     94.711  MISS %:    5.28904   MPKI: 1.8794
BTB BRANCH_DIRECT_JUMP	ACCESS:     386612  HIT:     386319  MISS:        293
BTB BRANCH_INDIRECT	ACCESS:      10313  HIT:       9130  MISS:       1183
BTB BRANCH_CONDITIONAL	ACCESS:    5707725  HIT:    5706213  MISS:       1512
BTB BRANCH_DIRECT_CALL	ACCESS:     301380  HIT:     300487  MISS:        893
BTB BRANCH_INDIRECT_CALL	ACCESS:     199681  HIT:     187417  MISS:      12264
BTB BRANCH_RETURN	ACCESS:     501060  HIT:     141325  MISS:     359735
BTB BRANCH_OTHER ACCESS:          0  HIT:          0  MISS:          0

L2C TOTAL     ACCESS:    3697140  HIT:    3347222  MISS:     349918  HIT %:    90.5354  MISS %:    9.46456   MPKI: 1.74959
L2C LOAD      ACCESS:    1042144  HIT:     964283  MISS:      77861  HIT %:    92.5288  MISS %:    7.47123   MPKI: 0.389305
L2C DATA LOAD MPKI: 0.33372
L2C INSTRUCTION LOAD MPKI: 0.055585
L2C RFO       ACCESS:     150688  HIT:      48892  MISS:     101796  HIT %:    32.4458  MISS %:    67.5542   MPKI: 0.50898
L2C PREFETCH  ACCESS:    2218564  HIT:    2052768  MISS:     165796  HIT %:    92.5269  MISS %:    7.47312   MPKI: 0.82898
L2C DATA PREFETCH MPKI: 0.82898
L2C INSTRUCTION PREFETCH MPKI: 0
L2C WRITEBACK ACCESS:     188441  HIT:     185197  MISS:       3244  HIT %:    98.2785  MISS %:    1.72149   MPKI: 0.01622
L2C LOAD TRANSLATION ACCESS:       3982  HIT:       3329  MISS:        653  HIT %:    83.6012  MISS %:    16.3988   MPKI: 0.003265
L2C TRANSLATION FROM L1D PREFETCHER ACCESS:      93321  HIT:      92753  MISS:        568  HIT %:    99.3913  MISS %:   0.608652   MPKI: 0.00284
L2C PREFETCH  REQUESTED:          0  ISSUED:          0  USEFUL:      33120  USELESS:     133724
L2C USEFUL LOAD PREFETCHES:      33120 PREFETCH ISSUED TO LOWER LEVEL:     171726  ACCURACY: 19.2865
L2C TIMELY PREFETCHES:      33120 LATE PREFETCHES: 5930 DROPPED PREFETCHES: 0
L2C PREFETCHES SAME FILL-ORIGIN LEVEL: 117132 DIFFERENT FILL-ORIGIN LEVEL: 0
L2C AVERAGE MISS LATENCY: 186.506 cycles
L2C RQ	ACCESS:    1290227	FORWARD:          0	MERGED:          0	TO_CACHE:    1290135
L2C WQ	ACCESS:     188441	FORWARD:         92	MERGED:          0	TO_CACHE:     188441
L2C PQ	ACCESS:    2311427	FORWARD:          0	MERGED:        610	TO_CACHE:    2310817

L2C Instructions Evicting Data 10059
L2C Translations Evicting Data 1168
L2C Data Evicting Data 323501
L2C Instructions Evicting Instructions 1015
L2C Translations Evicting Instructions 49
L2C Data Evicting Instructions 9678
L2C Instructions Evicting Translations 43
L2C Translations Evicting Translations 4
L2C Data Evicting Translations 1157
L2C Dense regions hint from L2: 0
PSCL5 TOTAL     ACCESS:      97296  HIT:      97296  MISS:          0  HIT %:        100  MISS %:          0   MPKI: 0
PSCL5 LOAD TRANSLATION ACCESS:       3976  HIT:       3976  MISS:          0  HIT %:        100  MISS %:          0   MPKI: 0
PSCL5 TRANSLATION FROM L1D PREFETCHER ACCESS:      93320  HIT:      93320  MISS:          0  HIT %:        100  MISS %:          0   MPKI: 0
PSCL5 PREFETCH  REQUESTED:          0  ISSUED:          0  USEFUL:          0  USELESS:          0
PSCL5 USEFUL LOAD PREFETCHES:          0 PREFETCH ISSUED TO LOWER LEVEL:          0  ACCURACY: -nan
PSCL5 TIMELY PREFETCHES:          0 LATE PREFETCHES: 0 DROPPED PREFETCHES: 0
PSCL5 PREFETCHES SAME FILL-ORIGIN LEVEL: 0 DIFFERENT FILL-ORIGIN LEVEL: 0

PSCL4 TOTAL     ACCESS:      97296  HIT:      97296  MISS:          0  HIT %:        100  MISS %:          0   MPKI: 0
PSCL4 LOAD TRANSLATION ACCESS:       3976  HIT:       3976  MISS:          0  HIT %:        100  MISS %:          0   MPKI: 0
PSCL4 TRANSLATION FROM L1D PREFETCHER ACCESS:      93320  HIT:      93320  MISS:          0  HIT %:        100  MISS %:          0   MPKI: 0
PSCL4 PREFETCH  REQUESTED:          0  ISSUED:          0  USEFUL:          0  USELESS:          0
PSCL4 USEFUL LOAD PREFETCHES:          0 PREFETCH ISSUED TO LOWER LEVEL:          0  ACCURACY: -nan
PSCL4 TIMELY PREFETCHES:          0 LATE PREFETCHES: 0 DROPPED PREFETCHES: 0
PSCL4 PREFETCHES SAME FILL-ORIGIN LEVEL: 0 DIFFERENT FILL-ORIGIN LEVEL: 0

PSCL3 TOTAL     ACCESS:      97296  HIT:      97296  MISS:          0  HIT %:        100  MISS %:          0   MPKI: 0
PSCL3 LOAD TRANSLATION ACCESS:       3976  HIT:       3976  MISS:          0  HIT %:        100  MISS %:          0   MPKI: 0
PSCL3 TRANSLATION FROM L1D PREFETCHER ACCESS:      93320  HIT:      93320  MISS:          0  HIT %:        100  MISS %:          0   MPKI: 0
PSCL3 PREFETCH  REQUESTED:          0  ISSUED:          0  USEFUL:          0  USELESS:          0
PSCL3 USEFUL LOAD PREFETCHES:          0 PREFETCH ISSUED TO LOWER LEVEL:          0  ACCURACY: -nan
PSCL3 TIMELY PREFETCHES:          0 LATE PREFETCHES: 0 DROPPED PREFETCHES: 0
PSCL3 PREFETCHES SAME FILL-ORIGIN LEVEL: 0 DIFFERENT FILL-ORIGIN LEVEL: 0

PSCL2 TOTAL     ACCESS:      97295  HIT:      97276  MISS:         19  HIT %:    99.9805  MISS %:  0.0195282   MPKI: 9.5e-05
PSCL2 LOAD TRANSLATION ACCESS:       3976  HIT:       3957  MISS:         19  HIT %:    99.5221  MISS %:   0.477867   MPKI: 9.5e-05
PSCL2 TRANSLATION FROM L1D PREFETCHER ACCESS:      93319  HIT:      93319  MISS:          0  HIT %:        100  MISS %:          0   MPKI: 0
PSCL2 PREFETCH  REQUESTED:          0  ISSUED:          0  USEFUL:          0  USELESS:          0
PSCL2 USEFUL LOAD PREFETCHES:          0 PREFETCH ISSUED TO LOWER LEVEL:          0  ACCURACY: -nan
PSCL2 TIMELY PREFETCHES:          0 LATE PREFETCHES: 0 DROPPED PREFETCHES: 0
PSCL2 PREFETCHES SAME FILL-ORIGIN LEVEL: 0 DIFFERENT FILL-ORIGIN LEVEL: 0

LLC TOTAL     ACCESS:     472481  HIT:     216240  MISS:     256241  HIT %:    45.7669  MISS %:    54.2331   MPKI: 1.2812
LLC LOAD      ACCESS:      71931  HIT:      28496  MISS:      43435  HIT %:    39.6157  MISS %:    60.3843   MPKI: 0.217175
LLC RFO       ACCESS:     101796  HIT:       1534  MISS:     100262  HIT %:    1.50694  MISS %:    98.4931   MPKI: 0.50131
LLC PREFETCH  ACCESS:     171726  HIT:      63368  MISS:     108358  HIT %:    36.9006  MISS %:    63.0994   MPKI: 0.54179
LLC WRITEBACK ACCESS:     125807  HIT:     122330  MISS:       3477  HIT %:    97.2362  MISS %:    2.76376   MPKI: 0.017385
LLC LOAD TRANSLATION ACCESS:        653  HIT:        242  MISS:        411  HIT %:    37.0597  MISS %:    62.9403   MPKI: 0.002055
LLC TRANSLATION FROM L1D PREFETCHER ACCESS:        568  HIT:        270  MISS:        298  HIT %:    47.5352  MISS %:    52.4648   MPKI: 0.00149
LLC PREFETCH  REQUESTED:          0  ISSUED:          0  USEFUL:       8513  USELESS:     101027
LLC USEFUL LOAD PREFETCHES:       8513 PREFETCH ISSUED TO LOWER LEVEL:     108358  ACCURACY: 7.85637
LLC TIMELY PREFETCHES:       8513 LATE PREFETCHES: 0 DROPPED PREFETCHES: 0
LLC PREFETCHES SAME FILL-ORIGIN LEVEL: 0 DIFFERENT FILL-ORIGIN LEVEL: 0
LLC AVERAGE MISS LATENCY: 216.554 cycles
LLC RQ	ACCESS:     174948	FORWARD:          0	MERGED:          0	TO_CACHE:     174948
LLC WQ	ACCESS:     125807	FORWARD:          0	MERGED:          0	TO_CACHE:     125807
LLC PQ	ACCESS:     171726	FORWARD:          0	MERGED:          0	TO_CACHE:     171726

LLC Dense regions hint to LLC: 0

RAW hits: 501390
Loads Generated: 42392645
Loads sent to L1D: 41891252
Stores Generated: 13113788
Stores sent to L1D: 13113790
Major fault: 0 Minor fault: 4626
Allocated PAGES: 4626

DRAM Statistics
 CHANNEL 0
 RQ ROW_BUFFER_HIT:      83888  ROW_BUFFER_MISS:     168857
 DBUS_CONGESTED:         78
 WQ ROW_BUFFER_HIT:      14609  ROW_BUFFER_MISS:     110119  FULL:          0

 AVG_CONGESTED_CYCLE: 5
 All warmup complete: 2
Channel 0 Bank busy for read cycles: 0
Channel 0 Bank busy for write cycles: 0
Channel 0
Rank 0
0banks busy for read cycles: 227418403
0banks busy for write cycles: 39640
1banks busy for read cycles: 9299691
1banks busy for write cycles: 5172443
2banks busy for read cycles: 2650514
2banks busy for write cycles: 824805
3banks busy for read cycles: 1075049
3banks busy for write cycles: 496361
4banks busy for read cycles: 507519
4banks busy for write cycles: 376645
5banks busy for read cycles: 272070
5banks busy for write cycles: 238329
6banks busy for read cycles: 280828
6banks busy for write cycles: 185761
7banks busy for read cycles: 299574
7banks busy for write cycles: 206326
8banks busy for read cycles: 629428
8banks busy for write cycles: 1042325

CPU 0 Branch Prediction Accuracy: 98.515% MPKI: 0.513405 Average ROB Occupancy at Mispredict: 19.2505
Branch types
NOT_BRANCH: 191686350 95.8432%
BRANCH_DIRECT_JUMP: 386612 0.193306%
BRANCH_INDIRECT: 10313 0.0051565%
BRANCH_CONDITIONAL: 6914317 3.45716%
BRANCH_DIRECT_CALL: 301380 0.15069%
BRANCH_INDIRECT_CALL: 199681 0.0998405%
BRANCH_RETURN: 501060 0.25053%
BRANCH_OTHER: 0 0%

DRAM PAGES: 1048576
Allocated PAGES: 4626
