 (TOTAL 523355 bits 511 Kbits) 
*** ChampSim Multicore Out-of-Order Simulator ***

Warmup Instructions: 50000000
Simulation Instructions: 200000000
Number of CPUs: 1
LLC sets: 2048
LLC ways: 16
Off-chip DRAM Size: 4096 MB Channels: 1 Width: 64-bit Data Rate: 6400 MT/s
argv[0]: ./ChampSim/Berti/bin/tagescl-no-vberti-no-no-no-no-no-lru-lru-lru-srrip-drrip-lru-lru-lru-1core-no
argv[1]: -warmup_instructions
argv[2]: 50000000
argv[3]: -simulation_instructions
argv[4]: 200000000
argv[5]: -traces
argv[6]: traces/spec2k17_ten/644.nab_s-7928B.champsimtrace.xz
CPU 0 runs traces/spec2k17_ten/644.nab_s-7928B.champsimtrace.xz
.xz
CPU 0 Tage branch predictor
BTB has LRU replacement policy
ITLB has LRU replacement policy
DTLB has LRU replacement policy
STLB has LRU replacement policy
L1I has LRU replacement policy
History Sets: 8
History Ways: 16
BERTI Size: 16
BERTI Stride Size: 16
L1D has LRU replacement policy
Initialize SRRIP state for L2C
Initialize DRRIP state for LLC
Heartbeat CPU 0 instructions: 10000000 cycles: 3131929 heartbeat IPC: 3.19292 cumulative IPC: 3.19292 (Simulation time: 0 hr 8 min 46 sec) 
Heartbeat CPU 0 instructions: 20000002 cycles: 6260158 heartbeat IPC: 3.1967 cumulative IPC: 3.19481 (Simulation time: 0 hr 18 min 23 sec) 
Heartbeat CPU 0 instructions: 30000003 cycles: 9389166 heartbeat IPC: 3.1959 cumulative IPC: 3.19517 (Simulation time: 0 hr 27 min 50 sec) 
Heartbeat CPU 0 instructions: 40000000 cycles: 12515022 heartbeat IPC: 3.19912 cumulative IPC: 3.19616 (Simulation time: 0 hr 38 min 4 sec) 
Heartbeat CPU 0 instructions: 50000003 cycles: 15642590 heartbeat IPC: 3.19737 cumulative IPC: 3.1964 (Simulation time: 0 hr 47 min 58 sec) 

Warmup complete CPU 0 instructions: 50000003 cycles: 15642590 (Simulation time: 0 hr 47 min 58 sec) 

Heartbeat CPU 0 instructions: 60000003 cycles: 29118763 heartbeat IPC: 0.74205 cumulative IPC: 0.74205 (Simulation time: 0 hr 58 min 44 sec) 
Heartbeat CPU 0 instructions: 70000002 cycles: 42579485 heartbeat IPC: 0.742902 cumulative IPC: 0.742476 (Simulation time: 1 hr 9 min 51 sec) 
Heartbeat CPU 0 instructions: 80000002 cycles: 56131902 heartbeat IPC: 0.737876 cumulative IPC: 0.740936 (Simulation time: 1 hr 19 min 33 sec) 
Heartbeat CPU 0 instructions: 90000003 cycles: 69709216 heartbeat IPC: 0.736523 cumulative IPC: 0.739828 (Simulation time: 1 hr 27 min 14 sec) 
Heartbeat CPU 0 instructions: 100000000 cycles: 83329456 heartbeat IPC: 0.734201 cumulative IPC: 0.738696 (Simulation time: 1 hr 34 min 10 sec) 
Heartbeat CPU 0 instructions: 110000000 cycles: 96905881 heartbeat IPC: 0.736571 cumulative IPC: 0.738341 (Simulation time: 1 hr 41 min 3 sec) 
Heartbeat CPU 0 instructions: 120000000 cycles: 110469286 heartbeat IPC: 0.737278 cumulative IPC: 0.738189 (Simulation time: 1 hr 46 min 58 sec) 
Heartbeat CPU 0 instructions: 130000002 cycles: 123993280 heartbeat IPC: 0.739427 cumulative IPC: 0.738343 (Simulation time: 1 hr 51 min 15 sec) 
Heartbeat CPU 0 instructions: 140000002 cycles: 137591635 heartbeat IPC: 0.735383 cumulative IPC: 0.738013 (Simulation time: 1 hr 55 min 2 sec) 
Heartbeat CPU 0 instructions: 150000002 cycles: 151196372 heartbeat IPC: 0.735038 cumulative IPC: 0.737715 (Simulation time: 1 hr 58 min 15 sec) 
Heartbeat CPU 0 instructions: 160000001 cycles: 164758169 heartbeat IPC: 0.737365 cumulative IPC: 0.737683 (Simulation time: 2 hr 0 min 56 sec) 
Heartbeat CPU 0 instructions: 170000002 cycles: 178308551 heartbeat IPC: 0.737987 cumulative IPC: 0.737708 (Simulation time: 2 hr 2 min 58 sec) 
Heartbeat CPU 0 instructions: 180000000 cycles: 191887696 heartbeat IPC: 0.736423 cumulative IPC: 0.737609 (Simulation time: 2 hr 4 min 49 sec) 
Heartbeat CPU 0 instructions: 190000002 cycles: 205501173 heartbeat IPC: 0.734566 cumulative IPC: 0.737391 (Simulation time: 2 hr 6 min 11 sec) 
Heartbeat CPU 0 instructions: 200000002 cycles: 219201678 heartbeat IPC: 0.7299 cumulative IPC: 0.736887 (Simulation time: 2 hr 7 min 21 sec) 
Heartbeat CPU 0 instructions: 210000000 cycles: 232821124 heartbeat IPC: 0.734244 cumulative IPC: 0.736721 (Simulation time: 2 hr 8 min 31 sec) 
Heartbeat CPU 0 instructions: 220000000 cycles: 246381128 heartbeat IPC: 0.737463 cumulative IPC: 0.736765 (Simulation time: 2 hr 9 min 26 sec) 
Heartbeat CPU 0 instructions: 230000000 cycles: 259892954 heartbeat IPC: 0.740092 cumulative IPC: 0.736949 (Simulation time: 2 hr 10 min 17 sec) 
Heartbeat CPU 0 instructions: 240000001 cycles: 273415508 heartbeat IPC: 0.739505 cumulative IPC: 0.737083 (Simulation time: 2 hr 11 min 6 sec) 
Heartbeat CPU 0 instructions: 250000000 cycles: 286903298 heartbeat IPC: 0.741411 cumulative IPC: 0.737298 (Simulation time: 2 hr 11 min 55 sec) 
Finished CPU 0 instructions: 200000000 cycles: 271260728 cumulative IPC: 0.737298 (Simulation time: 2 hr 11 min 55 sec) 

ChampSim completed all CPUs

Region of Interest Statistics

CPU 0 cumulative IPC: 0.737298 instructions: 200000000 cycles: 271260728
ITLB TOTAL     ACCESS:   33645404  HIT:   33645404  MISS:          0  HIT %:        100  MISS %:          0   MPKI: 0
ITLB LOAD TRANSLATION ACCESS:   33645404  HIT:   33645404  MISS:          0  HIT %:        100  MISS %:          0   MPKI: 0
ITLB PREFETCH  REQUESTED:          0  ISSUED:          0  USEFUL:          0  USELESS:          0
ITLB USEFUL LOAD PREFETCHES:          0 PREFETCH ISSUED TO LOWER LEVEL:          0  ACCURACY: -nan
ITLB TIMELY PREFETCHES:          0 LATE PREFETCHES: 0 DROPPED PREFETCHES: 0
ITLB PREFETCHES SAME FILL-ORIGIN LEVEL: 0 DIFFERENT FILL-ORIGIN LEVEL: 0
ITLB AVERAGE MISS LATENCY: -nan cycles
ITLB RQ	ACCESS:   36431133	FORWARD:          0	MERGED:    2785730	TO_CACHE:   33645403

DTLB TOTAL     ACCESS:   43181435  HIT:   43105089  MISS:      76346  HIT %:    99.8232  MISS %:   0.176803   MPKI: 0.38173
DTLB LOAD TRANSLATION ACCESS:   43181435  HIT:   43105089  MISS:      76346  HIT %:    99.8232  MISS %:   0.176803   MPKI: 0.38173
DTLB PREFETCH  REQUESTED:          0  ISSUED:          0  USEFUL:          0  USELESS:          0
DTLB USEFUL LOAD PREFETCHES:          0 PREFETCH ISSUED TO LOWER LEVEL:          0  ACCURACY: -nan
DTLB TIMELY PREFETCHES:          0 LATE PREFETCHES: 0 DROPPED PREFETCHES: 0
DTLB PREFETCHES SAME FILL-ORIGIN LEVEL: 0 DIFFERENT FILL-ORIGIN LEVEL: 0
DTLB AVERAGE MISS LATENCY: 13.1079 cycles
DTLB RQ	ACCESS:   54102274	FORWARD:          0	MERGED:   10920738	TO_CACHE:   43181536

STLB TOTAL     ACCESS:    8183952  HIT:    8181883  MISS:       2069  HIT %:    99.9747  MISS %:  0.0252812   MPKI: 0.010345
STLB LOAD TRANSLATION ACCESS:      76346  HIT:      74296  MISS:       2050  HIT %:    97.3149  MISS %:    2.68514   MPKI: 0.01025
STLB TRANSLATION FROM L1D PREFETCHER ACCESS:    8107606  HIT:    8107587  MISS:         19  HIT %:    99.9998  MISS %: 0.000234348   MPKI: 9.5e-05
STLB PREFETCH  REQUESTED:          0  ISSUED:          0  USEFUL:         18  USELESS:          0
STLB USEFUL LOAD PREFETCHES:         18 PREFETCH ISSUED TO LOWER LEVEL:          0  ACCURACY: inf
STLB TIMELY PREFETCHES:         18 LATE PREFETCHES: 4 DROPPED PREFETCHES: 115582
STLB PREFETCHES SAME FILL-ORIGIN LEVEL: 0 DIFFERENT FILL-ORIGIN LEVEL: 0
STLB AVERAGE MISS LATENCY: 146.602 cycles
STLB RQ	ACCESS:   38333772	FORWARD:          0	MERGED:   30034157	TO_CACHE:    8299615

STLB Hit, L1D data hit: 0
STLB Hit, L2C data hit: 0
STLB Hit, LLC data hit: 0
STLB Hit, LLC data miss: 0
STLB STLB hints to L2: 0
L1D TOTAL     ACCESS:   81733455  HIT:   79363632  MISS:    2369823  HIT %:    97.1005  MISS %:    2.89945   MPKI: 11.8491
L1D LOAD      ACCESS:   40715844  HIT:   40338715  MISS:     377129  HIT %:    99.0738  MISS %:   0.926246   MPKI: 1.88565
L1D RFO       ACCESS:   13375899  HIT:   13375899  MISS:          0  HIT %:        100  MISS %:          0   MPKI: 0
L1D PREFETCH  ACCESS:   27641712  HIT:   25649018  MISS:    1992694  HIT %:     92.791  MISS %:    7.20901   MPKI: 9.96347
L1D PREFETCH  REQUESTED:   77290984  ISSUED:   76741091  USEFUL:    1499160  USELESS:     493545
L1D USEFUL LOAD PREFETCHES:    1499160 PREFETCH ISSUED TO LOWER LEVEL:   12416203  ACCURACY: 12.0742
L1D TIMELY PREFETCHES:    1499160 LATE PREFETCHES: 50 DROPPED PREFETCHES: 178033
L1D PREFETCHES SAME FILL-ORIGIN LEVEL: 1992745 DIFFERENT FILL-ORIGIN LEVEL: 10423458
L1D AVERAGE MISS LATENCY: 18.4318 cycles
L1D RQ	ACCESS:   51588018	FORWARD:          0	MERGED:   10730757	TO_CACHE:   40726376
L1D WQ	ACCESS:   13579933	FORWARD:     130885	MERGED:     204035	TO_CACHE:   13375898
L1D PQ	ACCESS:   38483665	FORWARD:          0	MERGED:     226239	TO_CACHE:   38257426

L1D UNIQUE REGIONS ACCESSED: 0
L1D REGIONS CONFLICTS: 0
L1D Cross Page Prefetch Requests: 3474515
L1D Same Page Prefetch Requests: 45356059
L1D ROI Sum of L1D PQ occupancy: 562497454
L1D PREFETCHES PUSHED FROM L2C: 0
L1I TOTAL     ACCESS:   36431134  HIT:   36431134  MISS:          0  HIT %:        100  MISS %:          0   MPKI: 0
L1I LOAD      ACCESS:   36431134  HIT:   36431134  MISS:          0  HIT %:        100  MISS %:          0   MPKI: 0
L1I PREFETCH  REQUESTED:          0  ISSUED:          0  USEFUL:          0  USELESS:          0
L1I USEFUL LOAD PREFETCHES:          0 PREFETCH ISSUED TO LOWER LEVEL:          0  ACCURACY: -nan
L1I TIMELY PREFETCHES:          0 LATE PREFETCHES: 0 DROPPED PREFETCHES: 0
L1I PREFETCHES SAME FILL-ORIGIN LEVEL: 0 DIFFERENT FILL-ORIGIN LEVEL: 0
L1I AVERAGE MISS LATENCY: -nan cycles
L1I RQ	ACCESS:   61403825	FORWARD:          0	MERGED:   24972692	TO_CACHE:   36431133

BTB TOTAL     ACCESS:   18471028  HIT:   18464327  MISS:       6701  HIT %:    99.9637  MISS %:  0.0362784   MPKI: 0.033505
BTB BRANCH_DIRECT_JUMP	ACCESS:    2741860  HIT:    2741819  MISS:         41
BTB BRANCH_INDIRECT	ACCESS:          0  HIT:          0  MISS:          0
BTB BRANCH_CONDITIONAL	ACCESS:   15263947  HIT:   15263897  MISS:         50
BTB BRANCH_DIRECT_CALL	ACCESS:     232610  HIT:     232607  MISS:          3
BTB BRANCH_INDIRECT_CALL	ACCESS:          0  HIT:          0  MISS:          0
BTB BRANCH_RETURN	ACCESS:     232611  HIT:     226004  MISS:       6607
BTB BRANCH_OTHER ACCESS:          0  HIT:          0  MISS:          0

L2C TOTAL     ACCESS:   13504676  HIT:   13342150  MISS:     162526  HIT %:    98.7965  MISS %:    1.20348   MPKI: 0.81263
L2C LOAD      ACCESS:     377079  HIT:     366380  MISS:      10699  HIT %:    97.1627  MISS %:    2.83734   MPKI: 0.053495
L2C DATA LOAD MPKI: 0.053495
L2C INSTRUCTION LOAD MPKI: 0
L2C PREFETCH  ACCESS:   12402650  HIT:   12252226  MISS:     150424  HIT %:    98.7872  MISS %:    1.21284   MPKI: 0.75212
L2C DATA PREFETCH MPKI: 0.75212
L2C INSTRUCTION PREFETCH MPKI: 0
L2C WRITEBACK ACCESS:     601700  HIT:     601403  MISS:        297  HIT %:    99.9506  MISS %:  0.0493601   MPKI: 0.001485
L2C LOAD TRANSLATION ACCESS:       2088  HIT:       1591  MISS:        497  HIT %:    76.1973  MISS %:    23.8027   MPKI: 0.002485
L2C TRANSLATION FROM L1D PREFETCHER ACCESS:     121159  HIT:     120550  MISS:        609  HIT %:    99.4974  MISS %:   0.502645   MPKI: 0.003045
L2C PREFETCH  REQUESTED:          0  ISSUED:          0  USEFUL:      12479  USELESS:     138606
L2C USEFUL LOAD PREFETCHES:      12479 PREFETCH ISSUED TO LOWER LEVEL:     150424  ACCURACY: 8.29588
L2C TIMELY PREFETCHES:      12479 LATE PREFETCHES: 0 DROPPED PREFETCHES: 0
L2C PREFETCHES SAME FILL-ORIGIN LEVEL: 84872 DIFFERENT FILL-ORIGIN LEVEL: 0
L2C AVERAGE MISS LATENCY: 94.7583 cycles
L2C RQ	ACCESS:     500326	FORWARD:          0	MERGED:          0	TO_CACHE:     500326
L2C WQ	ACCESS:     601700	FORWARD:          0	MERGED:          0	TO_CACHE:     601700
L2C PQ	ACCESS:   12416198	FORWARD:          0	MERGED:         13	TO_CACHE:   12416185

L2C Instructions Evicting Data 0
L2C Translations Evicting Data 1096
L2C Data Evicting Data 160023
L2C Instructions Evicting Instructions 0
L2C Translations Evicting Instructions 0
L2C Data Evicting Instructions 0
L2C Instructions Evicting Translations 0
L2C Translations Evicting Translations 10
L2C Data Evicting Translations 1100
L2C Dense regions hint from L2: 0
PSCL5 TOTAL     ACCESS:     117655  HIT:     117655  MISS:          0  HIT %:        100  MISS %:          0   MPKI: 0
PSCL5 LOAD TRANSLATION ACCESS:       2050  HIT:       2050  MISS:          0  HIT %:        100  MISS %:          0   MPKI: 0
PSCL5 TRANSLATION FROM L1D PREFETCHER ACCESS:     115605  HIT:     115605  MISS:          0  HIT %:        100  MISS %:          0   MPKI: 0
PSCL5 PREFETCH  REQUESTED:          0  ISSUED:          0  USEFUL:          0  USELESS:          0
PSCL5 USEFUL LOAD PREFETCHES:          0 PREFETCH ISSUED TO LOWER LEVEL:          0  ACCURACY: -nan
PSCL5 TIMELY PREFETCHES:          0 LATE PREFETCHES: 0 DROPPED PREFETCHES: 0
PSCL5 PREFETCHES SAME FILL-ORIGIN LEVEL: 0 DIFFERENT FILL-ORIGIN LEVEL: 0

PSCL4 TOTAL     ACCESS:     117655  HIT:     117655  MISS:          0  HIT %:        100  MISS %:          0   MPKI: 0
PSCL4 LOAD TRANSLATION ACCESS:       2050  HIT:       2050  MISS:          0  HIT %:        100  MISS %:          0   MPKI: 0
PSCL4 TRANSLATION FROM L1D PREFETCHER ACCESS:     115605  HIT:     115605  MISS:          0  HIT %:        100  MISS %:          0   MPKI: 0
PSCL4 PREFETCH  REQUESTED:          0  ISSUED:          0  USEFUL:          0  USELESS:          0
PSCL4 USEFUL LOAD PREFETCHES:          0 PREFETCH ISSUED TO LOWER LEVEL:          0  ACCURACY: -nan
PSCL4 TIMELY PREFETCHES:          0 LATE PREFETCHES: 0 DROPPED PREFETCHES: 0
PSCL4 PREFETCHES SAME FILL-ORIGIN LEVEL: 0 DIFFERENT FILL-ORIGIN LEVEL: 0

PSCL3 TOTAL     ACCESS:     117655  HIT:     117655  MISS:          0  HIT %:        100  MISS %:          0   MPKI: 0
PSCL3 LOAD TRANSLATION ACCESS:       2050  HIT:       2050  MISS:          0  HIT %:        100  MISS %:          0   MPKI: 0
PSCL3 TRANSLATION FROM L1D PREFETCHER ACCESS:     115605  HIT:     115605  MISS:          0  HIT %:        100  MISS %:          0   MPKI: 0
PSCL3 PREFETCH  REQUESTED:          0  ISSUED:          0  USEFUL:          0  USELESS:          0
PSCL3 USEFUL LOAD PREFETCHES:          0 PREFETCH ISSUED TO LOWER LEVEL:          0  ACCURACY: -nan
PSCL3 TIMELY PREFETCHES:          0 LATE PREFETCHES: 0 DROPPED PREFETCHES: 0
PSCL3 PREFETCHES SAME FILL-ORIGIN LEVEL: 0 DIFFERENT FILL-ORIGIN LEVEL: 0

PSCL2 TOTAL     ACCESS:     112054  HIT:     111961  MISS:         93  HIT %:     99.917  MISS %:  0.0829957   MPKI: 0.000465
PSCL2 LOAD TRANSLATION ACCESS:       2050  HIT:       1957  MISS:         93  HIT %:    95.4634  MISS %:    4.53659   MPKI: 0.000465
PSCL2 TRANSLATION FROM L1D PREFETCHER ACCESS:     110004  HIT:     110004  MISS:          0  HIT %:        100  MISS %:          0   MPKI: 0
PSCL2 PREFETCH  REQUESTED:          0  ISSUED:          0  USEFUL:          0  USELESS:          0
PSCL2 USEFUL LOAD PREFETCHES:          0 PREFETCH ISSUED TO LOWER LEVEL:          0  ACCURACY: -nan
PSCL2 TIMELY PREFETCHES:          0 LATE PREFETCHES: 0 DROPPED PREFETCHES: 0
PSCL2 PREFETCHES SAME FILL-ORIGIN LEVEL: 0 DIFFERENT FILL-ORIGIN LEVEL: 0

LLC TOTAL     ACCESS:     173436  HIT:      61559  MISS:     111877  HIT %:    35.4938  MISS %:    64.5062   MPKI: 0.559385
LLC LOAD      ACCESS:      10699  HIT:       6014  MISS:       4685  HIT %:    56.2109  MISS %:    43.7891   MPKI: 0.023425
LLC PREFETCH  ACCESS:     150424  HIT:      45521  MISS:     104903  HIT %:    30.2618  MISS %:    69.7382   MPKI: 0.524515
LLC WRITEBACK ACCESS:      11207  HIT:       9449  MISS:       1758  HIT %:    84.3134  MISS %:    15.6866   MPKI: 0.00879
LLC LOAD TRANSLATION ACCESS:        497  HIT:        173  MISS:        324  HIT %:    34.8089  MISS %:    65.1911   MPKI: 0.00162
LLC TRANSLATION FROM L1D PREFETCHER ACCESS:        609  HIT:        402  MISS:        207  HIT %:    66.0099  MISS %:    33.9901   MPKI: 0.001035
LLC PREFETCH  REQUESTED:          0  ISSUED:          0  USEFUL:       1325  USELESS:     103052
LLC USEFUL LOAD PREFETCHES:       1325 PREFETCH ISSUED TO LOWER LEVEL:     104903  ACCURACY: 1.26307
LLC TIMELY PREFETCHES:       1325 LATE PREFETCHES: 0 DROPPED PREFETCHES: 0
LLC PREFETCHES SAME FILL-ORIGIN LEVEL: 0 DIFFERENT FILL-ORIGIN LEVEL: 0
LLC AVERAGE MISS LATENCY: 94.0222 cycles
LLC RQ	ACCESS:      11805	FORWARD:          0	MERGED:          0	TO_CACHE:      11805
LLC WQ	ACCESS:      11207	FORWARD:          0	MERGED:          0	TO_CACHE:      11207
LLC PQ	ACCESS:     150424	FORWARD:          0	MERGED:          0	TO_CACHE:     150424

LLC Dense regions hint to LLC: 0

RAW hits: 5405131
Loads Generated: 56993151
Loads sent to L1D: 51588018
Stores Generated: 13579931
Stores sent to L1D: 13579933
Major fault: 0 Minor fault: 2739
Allocated PAGES: 2739

DRAM Statistics
 CHANNEL 0
 RQ ROW_BUFFER_HIT:      84140  ROW_BUFFER_MISS:      25979
 DBUS_CONGESTED:          1
 WQ ROW_BUFFER_HIT:         27  ROW_BUFFER_MISS:       2983  FULL:          0

 AVG_CONGESTED_CYCLE: 3
 All warmup complete: 2
Channel 0 Bank busy for read cycles: 0
Channel 0 Bank busy for write cycles: 0
Channel 0
Rank 0
0banks busy for read cycles: 263923046
0banks busy for write cycles: 2882
1banks busy for read cycles: 6339508
1banks busy for write cycles: 423877
2banks busy for read cycles: 250433
2banks busy for write cycles: 12491
3banks busy for read cycles: 118576
3banks busy for write cycles: 1447
4banks busy for read cycles: 120697
4banks busy for write cycles: 565
5banks busy for read cycles: 21887
5banks busy for write cycles: 458
6banks busy for read cycles: 13716
6banks busy for write cycles: 143
7banks busy for read cycles: 14779
7banks busy for write cycles: 0
8banks busy for read cycles: 16224
8banks busy for write cycles: 0

CPU 0 Branch Prediction Accuracy: 98.1353% MPKI: 1.49028 Average ROB Occupancy at Mispredict: 147.839
Branch types
NOT_BRANCH: 180808578 90.4043%
BRANCH_DIRECT_JUMP: 2741860 1.37093%
BRANCH_INDIRECT: 0 0%
BRANCH_CONDITIONAL: 15984342 7.99217%
BRANCH_DIRECT_CALL: 232610 0.116305%
BRANCH_INDIRECT_CALL: 0 0%
BRANCH_RETURN: 232611 0.116306%
BRANCH_OTHER: 0 0%

DRAM PAGES: 1048576
Allocated PAGES: 2739
