 (TOTAL 523355 bits 511 Kbits) 
*** ChampSim Multicore Out-of-Order Simulator ***

Warmup Instructions: 50000000
Simulation Instructions: 200000000
Number of CPUs: 1
LLC sets: 2048
LLC ways: 16
Off-chip DRAM Size: 4096 MB Channels: 1 Width: 64-bit Data Rate: 6400 MT/s
argv[0]: ./ChampSim/Berti/bin/tagescl-no-vberti-no-no-no-no-no-lru-lru-lru-srrip-drrip-lru-lru-lru-1core-no
argv[1]: -warmup_instructions
argv[2]: 50000000
argv[3]: -simulation_instructions
argv[4]: 200000000
argv[5]: -traces
argv[6]: traces/spec2k17_ten/644.nab_s-9322B.champsimtrace.xz
CPU 0 runs traces/spec2k17_ten/644.nab_s-9322B.champsimtrace.xz
.xz
CPU 0 Tage branch predictor
BTB has LRU replacement policy
ITLB has LRU replacement policy
DTLB has LRU replacement policy
STLB has LRU replacement policy
L1I has LRU replacement policy
History Sets: 8
History Ways: 16
BERTI Size: 16
BERTI Stride Size: 16
L1D has LRU replacement policy
Initialize SRRIP state for L2C
Initialize DRRIP state for LLC
Heartbeat CPU 0 instructions: 10000002 cycles: 3462856 heartbeat IPC: 2.88779 cumulative IPC: 2.88779 (Simulation time: 0 hr 9 min 35 sec) 
Heartbeat CPU 0 instructions: 20000003 cycles: 6926342 heartbeat IPC: 2.88726 cumulative IPC: 2.88753 (Simulation time: 0 hr 18 min 42 sec) 
Heartbeat CPU 0 instructions: 30000002 cycles: 10387022 heartbeat IPC: 2.88961 cumulative IPC: 2.88822 (Simulation time: 0 hr 28 min 42 sec) 
Heartbeat CPU 0 instructions: 40000001 cycles: 13847179 heartbeat IPC: 2.89004 cumulative IPC: 2.88867 (Simulation time: 0 hr 39 min 34 sec) 
Heartbeat CPU 0 instructions: 50000003 cycles: 17308990 heartbeat IPC: 2.88866 cumulative IPC: 2.88867 (Simulation time: 0 hr 49 min 57 sec) 

Warmup complete CPU 0 instructions: 50000003 cycles: 17308990 (Simulation time: 0 hr 49 min 57 sec) 

Heartbeat CPU 0 instructions: 60000000 cycles: 32571377 heartbeat IPC: 0.655205 cumulative IPC: 0.655205 (Simulation time: 1 hr 2 min 8 sec) 
Heartbeat CPU 0 instructions: 70000000 cycles: 47805476 heartbeat IPC: 0.656422 cumulative IPC: 0.655813 (Simulation time: 1 hr 12 min 26 sec) 
Heartbeat CPU 0 instructions: 80000000 cycles: 63030852 heartbeat IPC: 0.656798 cumulative IPC: 0.656141 (Simulation time: 1 hr 21 min 20 sec) 
Heartbeat CPU 0 instructions: 90000000 cycles: 78300276 heartbeat IPC: 0.654904 cumulative IPC: 0.655831 (Simulation time: 1 hr 28 min 17 sec) 
Heartbeat CPU 0 instructions: 100000002 cycles: 93579448 heartbeat IPC: 0.654486 cumulative IPC: 0.655562 (Simulation time: 1 hr 35 min 11 sec) 
Heartbeat CPU 0 instructions: 110000000 cycles: 108820890 heartbeat IPC: 0.656106 cumulative IPC: 0.655652 (Simulation time: 1 hr 42 min 24 sec) 
Heartbeat CPU 0 instructions: 120000000 cycles: 124082885 heartbeat IPC: 0.655222 cumulative IPC: 0.655591 (Simulation time: 1 hr 47 min 45 sec) 
Heartbeat CPU 0 instructions: 130000000 cycles: 139330962 heartbeat IPC: 0.65582 cumulative IPC: 0.65562 (Simulation time: 1 hr 52 min 24 sec) 
Heartbeat CPU 0 instructions: 140000000 cycles: 154552267 heartbeat IPC: 0.656974 cumulative IPC: 0.65577 (Simulation time: 1 hr 55 min 50 sec) 
Heartbeat CPU 0 instructions: 150000001 cycles: 169861791 heartbeat IPC: 0.653188 cumulative IPC: 0.655511 (Simulation time: 1 hr 58 min 53 sec) 
Heartbeat CPU 0 instructions: 160000000 cycles: 185148729 heartbeat IPC: 0.654153 cumulative IPC: 0.655387 (Simulation time: 2 hr 1 min 23 sec) 
Heartbeat CPU 0 instructions: 170000003 cycles: 200414090 heartbeat IPC: 0.655078 cumulative IPC: 0.655361 (Simulation time: 2 hr 3 min 18 sec) 
Heartbeat CPU 0 instructions: 180000001 cycles: 215707968 heartbeat IPC: 0.653856 cumulative IPC: 0.655245 (Simulation time: 2 hr 4 min 50 sec) 
Heartbeat CPU 0 instructions: 190000001 cycles: 230975116 heartbeat IPC: 0.655001 cumulative IPC: 0.655228 (Simulation time: 2 hr 6 min 11 sec) 
Heartbeat CPU 0 instructions: 200000001 cycles: 246263898 heartbeat IPC: 0.654074 cumulative IPC: 0.655151 (Simulation time: 2 hr 7 min 4 sec) 
Heartbeat CPU 0 instructions: 210000001 cycles: 261516644 heartbeat IPC: 0.65562 cumulative IPC: 0.65518 (Simulation time: 2 hr 7 min 57 sec) 
Heartbeat CPU 0 instructions: 220000000 cycles: 276767165 heartbeat IPC: 0.655715 cumulative IPC: 0.655212 (Simulation time: 2 hr 8 min 50 sec) 
Heartbeat CPU 0 instructions: 230000000 cycles: 291969918 heartbeat IPC: 0.657776 cumulative IPC: 0.655353 (Simulation time: 2 hr 9 min 40 sec) 
Heartbeat CPU 0 instructions: 240000002 cycles: 307152322 heartbeat IPC: 0.658657 cumulative IPC: 0.655527 (Simulation time: 2 hr 10 min 29 sec) 
Heartbeat CPU 0 instructions: 250000000 cycles: 322397308 heartbeat IPC: 0.655953 cumulative IPC: 0.655548 (Simulation time: 2 hr 11 min 18 sec) 
Finished CPU 0 instructions: 200000000 cycles: 305088322 cumulative IPC: 0.655548 (Simulation time: 2 hr 11 min 18 sec) 

ChampSim completed all CPUs

Region of Interest Statistics

CPU 0 cumulative IPC: 0.655548 instructions: 200000000 cycles: 305088322
ITLB TOTAL     ACCESS:   33654154  HIT:   33654154  MISS:          0  HIT %:        100  MISS %:          0   MPKI: 0
ITLB LOAD TRANSLATION ACCESS:   33654154  HIT:   33654154  MISS:          0  HIT %:        100  MISS %:          0   MPKI: 0
ITLB PREFETCH  REQUESTED:          0  ISSUED:          0  USEFUL:          0  USELESS:          0
ITLB USEFUL LOAD PREFETCHES:          0 PREFETCH ISSUED TO LOWER LEVEL:          0  ACCURACY: -nan
ITLB TIMELY PREFETCHES:          0 LATE PREFETCHES: 0 DROPPED PREFETCHES: 0
ITLB PREFETCHES SAME FILL-ORIGIN LEVEL: 0 DIFFERENT FILL-ORIGIN LEVEL: 0
ITLB AVERAGE MISS LATENCY: -nan cycles
ITLB RQ	ACCESS:   38003230	FORWARD:          0	MERGED:    4349077	TO_CACHE:   33654153

DTLB TOTAL     ACCESS:   46318866  HIT:   46240234  MISS:      78632  HIT %:    99.8302  MISS %:   0.169762   MPKI: 0.39316
DTLB LOAD TRANSLATION ACCESS:   46318866  HIT:   46240234  MISS:      78632  HIT %:    99.8302  MISS %:   0.169762   MPKI: 0.39316
DTLB PREFETCH  REQUESTED:          0  ISSUED:          0  USEFUL:          0  USELESS:          0
DTLB USEFUL LOAD PREFETCHES:          0 PREFETCH ISSUED TO LOWER LEVEL:          0  ACCURACY: -nan
DTLB TIMELY PREFETCHES:          0 LATE PREFETCHES: 0 DROPPED PREFETCHES: 0
DTLB PREFETCHES SAME FILL-ORIGIN LEVEL: 0 DIFFERENT FILL-ORIGIN LEVEL: 0
DTLB AVERAGE MISS LATENCY: 13.319 cycles
DTLB RQ	ACCESS:   55593417	FORWARD:          0	MERGED:    9272717	TO_CACHE:   46320700

STLB TOTAL     ACCESS:   10816750  HIT:   10814260  MISS:       2490  HIT %:     99.977  MISS %:  0.0230199   MPKI: 0.01245
STLB LOAD TRANSLATION ACCESS:      78632  HIT:      76154  MISS:       2478  HIT %:    96.8486  MISS %:    3.15139   MPKI: 0.01239
STLB TRANSLATION FROM L1D PREFETCHER ACCESS:   10738118  HIT:   10738106  MISS:         12  HIT %:    99.9999  MISS %: 0.000111751   MPKI: 6e-05
STLB PREFETCH  REQUESTED:          0  ISSUED:          0  USEFUL:         12  USELESS:          0
STLB USEFUL LOAD PREFETCHES:         12 PREFETCH ISSUED TO LOWER LEVEL:          0  ACCURACY: inf
STLB TIMELY PREFETCHES:         12 LATE PREFETCHES: 16 DROPPED PREFETCHES: 216205
STLB PREFETCHES SAME FILL-ORIGIN LEVEL: 0 DIFFERENT FILL-ORIGIN LEVEL: 0
STLB AVERAGE MISS LATENCY: 136.273 cycles
STLB RQ	ACCESS:   49660009	FORWARD:          0	MERGED:   38626593	TO_CACHE:   11033416

STLB Hit, L1D data hit: 0
STLB Hit, L2C data hit: 0
STLB Hit, LLC data hit: 0
STLB Hit, LLC data miss: 0
STLB STLB hints to L2: 0
L1D TOTAL     ACCESS:   88355031  HIT:   86163367  MISS:    2191664  HIT %:    97.5195  MISS %:    2.48052   MPKI: 10.9583
L1D LOAD      ACCESS:   52219863  HIT:   51636012  MISS:     583851  HIT %:    98.8819  MISS %:    1.11806   MPKI: 2.91926
L1D RFO       ACCESS:    3344198  HIT:    3343293  MISS:        905  HIT %:    99.9729  MISS %:  0.0270618   MPKI: 0.004525
L1D PREFETCH  ACCESS:   32790970  HIT:   31184062  MISS:    1606908  HIT %:    95.0995  MISS %:    4.90046   MPKI: 8.03454
L1D PREFETCH  REQUESTED:  103939823  ISSUED:   99950170  USEFUL:    1208036  USELESS:     398969
L1D USEFUL LOAD PREFETCHES:    1208036 PREFETCH ISSUED TO LOWER LEVEL:   17954014  ACCURACY: 6.7285
L1D TIMELY PREFETCHES:    1208036 LATE PREFETCHES: 234 DROPPED PREFETCHES: 422617
L1D PREFETCHES SAME FILL-ORIGIN LEVEL: 1607142 DIFFERENT FILL-ORIGIN LEVEL: 16346872
L1D AVERAGE MISS LATENCY: 17.9741 cycles
L1D RQ	ACCESS:   60701629	FORWARD:          0	MERGED:    8447867	TO_CACHE:   52249219
L1D WQ	ACCESS:    3646099	FORWARD:       4543	MERGED:     301901	TO_CACHE:    3344198
L1D PQ	ACCESS:   50368793	FORWARD:          0	MERGED:     787416	TO_CACHE:   49581377

L1D UNIQUE REGIONS ACCESSED: 0
L1D REGIONS CONFLICTS: 0
L1D Cross Page Prefetch Requests: 5245619
L1D Same Page Prefetch Requests: 55901485
L1D ROI Sum of L1D PQ occupancy: 757330553
L1D PREFETCHES PUSHED FROM L2C: 0
L1I TOTAL     ACCESS:   38003228  HIT:   38003228  MISS:          0  HIT %:        100  MISS %:          0   MPKI: 0
L1I LOAD      ACCESS:   38003228  HIT:   38003228  MISS:          0  HIT %:        100  MISS %:          0   MPKI: 0
L1I PREFETCH  REQUESTED:          0  ISSUED:          0  USEFUL:          0  USELESS:          0
L1I USEFUL LOAD PREFETCHES:          0 PREFETCH ISSUED TO LOWER LEVEL:          0  ACCURACY: -nan
L1I TIMELY PREFETCHES:          0 LATE PREFETCHES: 0 DROPPED PREFETCHES: 0
L1I PREFETCHES SAME FILL-ORIGIN LEVEL: 0 DIFFERENT FILL-ORIGIN LEVEL: 0
L1I AVERAGE MISS LATENCY: -nan cycles
L1I RQ	ACCESS:   57369816	FORWARD:          0	MERGED:   19366586	TO_CACHE:   38003230

BTB TOTAL     ACCESS:   24544768  HIT:   24536491  MISS:       8277  HIT %:    99.9663  MISS %:  0.0337221   MPKI: 0.041385
BTB BRANCH_DIRECT_JUMP	ACCESS:    4173606  HIT:    4173581  MISS:         25
BTB BRANCH_INDIRECT	ACCESS:          0  HIT:          0  MISS:          0
BTB BRANCH_CONDITIONAL	ACCESS:   19704214  HIT:   19704174  MISS:         40
BTB BRANCH_DIRECT_CALL	ACCESS:     333474  HIT:     333471  MISS:          3
BTB BRANCH_INDIRECT_CALL	ACCESS:          0  HIT:          0  MISS:          0
BTB BRANCH_RETURN	ACCESS:     333474  HIT:     325265  MISS:       8209
BTB BRANCH_OTHER ACCESS:          0  HIT:          0  MISS:          0

L2C TOTAL     ACCESS:   18737995  HIT:   18546178  MISS:     191817  HIT %:    98.9763  MISS %:    1.02368   MPKI: 0.959085
L2C LOAD      ACCESS:     583617  HIT:     575162  MISS:       8455  HIT %:    98.5513  MISS %:    1.44872   MPKI: 0.042275
L2C DATA LOAD MPKI: 0.042275
L2C INSTRUCTION LOAD MPKI: 0
L2C RFO       ACCESS:        905  HIT:        791  MISS:        114  HIT %:    87.4033  MISS %:    12.5967   MPKI: 0.00057
L2C PREFETCH  ACCESS:   17917093  HIT:   17734993  MISS:     182100  HIT %:    98.9837  MISS %:    1.01635   MPKI: 0.9105
L2C DATA PREFETCH MPKI: 0.9105
L2C INSTRUCTION PREFETCH MPKI: 0
L2C WRITEBACK ACCESS:        905  HIT:        904  MISS:          1  HIT %:    99.8895  MISS %:   0.110497   MPKI: 5e-06
L2C LOAD TRANSLATION ACCESS:       2483  HIT:       2069  MISS:        414  HIT %:    83.3266  MISS %:    16.6734   MPKI: 0.00207
L2C TRANSLATION FROM L1D PREFETCHER ACCESS:     232992  HIT:     232259  MISS:        733  HIT %:    99.6854  MISS %:   0.314603   MPKI: 0.003665
L2C PREFETCH  REQUESTED:          0  ISSUED:          0  USEFUL:      14321  USELESS:     168841
L2C USEFUL LOAD PREFETCHES:      14321 PREFETCH ISSUED TO LOWER LEVEL:     182103  ACCURACY: 7.86423
L2C TIMELY PREFETCHES:      14321 LATE PREFETCHES: 3 DROPPED PREFETCHES: 0
L2C PREFETCHES SAME FILL-ORIGIN LEVEL: 134570 DIFFERENT FILL-ORIGIN LEVEL: 0
L2C AVERAGE MISS LATENCY: 98.5012 cycles
L2C RQ	ACCESS:     819997	FORWARD:          0	MERGED:          0	TO_CACHE:     819997
L2C WQ	ACCESS:        905	FORWARD:          0	MERGED:          0	TO_CACHE:        905
L2C PQ	ACCESS:   17954014	FORWARD:          0	MERGED:         70	TO_CACHE:   17953944

L2C Instructions Evicting Data 0
L2C Translations Evicting Data 1143
L2C Data Evicting Data 189496
L2C Instructions Evicting Instructions 0
L2C Translations Evicting Instructions 0
L2C Data Evicting Instructions 0
L2C Instructions Evicting Translations 0
L2C Translations Evicting Translations 4
L2C Data Evicting Translations 1173
L2C Dense regions hint from L2: 0
PSCL5 TOTAL     ACCESS:     218711  HIT:     218711  MISS:          0  HIT %:        100  MISS %:          0   MPKI: 0
PSCL5 LOAD TRANSLATION ACCESS:       2478  HIT:       2478  MISS:          0  HIT %:        100  MISS %:          0   MPKI: 0
PSCL5 TRANSLATION FROM L1D PREFETCHER ACCESS:     216233  HIT:     216233  MISS:          0  HIT %:        100  MISS %:          0   MPKI: 0
PSCL5 PREFETCH  REQUESTED:          0  ISSUED:          0  USEFUL:          0  USELESS:          0
PSCL5 USEFUL LOAD PREFETCHES:          0 PREFETCH ISSUED TO LOWER LEVEL:          0  ACCURACY: -nan
PSCL5 TIMELY PREFETCHES:          0 LATE PREFETCHES: 0 DROPPED PREFETCHES: 0
PSCL5 PREFETCHES SAME FILL-ORIGIN LEVEL: 0 DIFFERENT FILL-ORIGIN LEVEL: 0

PSCL4 TOTAL     ACCESS:     218711  HIT:     218711  MISS:          0  HIT %:        100  MISS %:          0   MPKI: 0
PSCL4 LOAD TRANSLATION ACCESS:       2478  HIT:       2478  MISS:          0  HIT %:        100  MISS %:          0   MPKI: 0
PSCL4 TRANSLATION FROM L1D PREFETCHER ACCESS:     216233  HIT:     216233  MISS:          0  HIT %:        100  MISS %:          0   MPKI: 0
PSCL4 PREFETCH  REQUESTED:          0  ISSUED:          0  USEFUL:          0  USELESS:          0
PSCL4 USEFUL LOAD PREFETCHES:          0 PREFETCH ISSUED TO LOWER LEVEL:          0  ACCURACY: -nan
PSCL4 TIMELY PREFETCHES:          0 LATE PREFETCHES: 0 DROPPED PREFETCHES: 0
PSCL4 PREFETCHES SAME FILL-ORIGIN LEVEL: 0 DIFFERENT FILL-ORIGIN LEVEL: 0

PSCL3 TOTAL     ACCESS:     218711  HIT:     218711  MISS:          0  HIT %:        100  MISS %:          0   MPKI: 0
PSCL3 LOAD TRANSLATION ACCESS:       2478  HIT:       2478  MISS:          0  HIT %:        100  MISS %:          0   MPKI: 0
PSCL3 TRANSLATION FROM L1D PREFETCHER ACCESS:     216233  HIT:     216233  MISS:          0  HIT %:        100  MISS %:          0   MPKI: 0
PSCL3 PREFETCH  REQUESTED:          0  ISSUED:          0  USEFUL:          0  USELESS:          0
PSCL3 USEFUL LOAD PREFETCHES:          0 PREFETCH ISSUED TO LOWER LEVEL:          0  ACCURACY: -nan
PSCL3 TIMELY PREFETCHES:          0 LATE PREFETCHES: 0 DROPPED PREFETCHES: 0
PSCL3 PREFETCHES SAME FILL-ORIGIN LEVEL: 0 DIFFERENT FILL-ORIGIN LEVEL: 0

PSCL2 TOTAL     ACCESS:     201902  HIT:     201883  MISS:         19  HIT %:    99.9906  MISS %: 0.00941051   MPKI: 9.5e-05
PSCL2 LOAD TRANSLATION ACCESS:       2478  HIT:       2459  MISS:         19  HIT %:    99.2333  MISS %:   0.766747   MPKI: 9.5e-05
PSCL2 TRANSLATION FROM L1D PREFETCHER ACCESS:     199424  HIT:     199424  MISS:          0  HIT %:        100  MISS %:          0   MPKI: 0
PSCL2 PREFETCH  REQUESTED:          0  ISSUED:          0  USEFUL:          0  USELESS:          0
PSCL2 USEFUL LOAD PREFETCHES:          0 PREFETCH ISSUED TO LOWER LEVEL:          0  ACCURACY: -nan
PSCL2 TIMELY PREFETCHES:          0 LATE PREFETCHES: 0 DROPPED PREFETCHES: 0
PSCL2 PREFETCHES SAME FILL-ORIGIN LEVEL: 0 DIFFERENT FILL-ORIGIN LEVEL: 0

LLC TOTAL     ACCESS:     191938  HIT:      44704  MISS:     147234  HIT %:    23.2909  MISS %:    76.7091   MPKI: 0.73617
LLC LOAD      ACCESS:       8452  HIT:       4112  MISS:       4340  HIT %:    48.6512  MISS %:    51.3488   MPKI: 0.0217
LLC RFO       ACCESS:        114  HIT:          0  MISS:        114  HIT %:          0  MISS %:        100   MPKI: 0.00057
LLC PREFETCH  ACCESS:     182103  HIT:      39816  MISS:     142287  HIT %:    21.8645  MISS %:    78.1355   MPKI: 0.711435
LLC WRITEBACK ACCESS:        122  HIT:        119  MISS:          3  HIT %:     97.541  MISS %:    2.45902   MPKI: 1.5e-05
LLC LOAD TRANSLATION ACCESS:        414  HIT:        135  MISS:        279  HIT %:    32.6087  MISS %:    67.3913   MPKI: 0.001395
LLC TRANSLATION FROM L1D PREFETCHER ACCESS:        733  HIT:        522  MISS:        211  HIT %:    71.2142  MISS %:    28.7858   MPKI: 0.001055
LLC PREFETCH  REQUESTED:          0  ISSUED:          0  USEFUL:       1021  USELESS:     141563
LLC USEFUL LOAD PREFETCHES:       1021 PREFETCH ISSUED TO LOWER LEVEL:     142287  ACCURACY: 0.717564
LLC TIMELY PREFETCHES:       1021 LATE PREFETCHES: 0 DROPPED PREFETCHES: 0
LLC PREFETCHES SAME FILL-ORIGIN LEVEL: 0 DIFFERENT FILL-ORIGIN LEVEL: 0
LLC AVERAGE MISS LATENCY: 89.1944 cycles
LLC RQ	ACCESS:       9713	FORWARD:          0	MERGED:          0	TO_CACHE:       9713
LLC WQ	ACCESS:        122	FORWARD:          0	MERGED:          0	TO_CACHE:        122
LLC PQ	ACCESS:     182103	FORWARD:          0	MERGED:          0	TO_CACHE:     182103

LLC Dense regions hint to LLC: 0

RAW hits: 1369167
Loads Generated: 62070798
Loads sent to L1D: 60701629
Stores Generated: 3646099
Stores sent to L1D: 3646099
Major fault: 0 Minor fault: 3391
Allocated PAGES: 3391

DRAM Statistics
 CHANNEL 0
 RQ ROW_BUFFER_HIT:     120406  ROW_BUFFER_MISS:      26825
 DBUS_CONGESTED:          0
 WQ ROW_BUFFER_HIT:          0  ROW_BUFFER_MISS:        116  FULL:          0

 AVG_CONGESTED_CYCLE: -
 All warmup complete: 2
Channel 0 Bank busy for read cycles: 0
Channel 0 Bank busy for write cycles: 0
Channel 0
Rank 0
0banks busy for read cycles: 296595435
0banks busy for write cycles: 110
1banks busy for read cycles: 7836761
1banks busy for write cycles: 15893
2banks busy for read cycles: 277936
2banks busy for write cycles: 598
3banks busy for read cycles: 94867
3banks busy for write cycles: 135
4banks busy for read cycles: 84643
4banks busy for write cycles: 0
5banks busy for read cycles: 97373
5banks busy for write cycles: 0
6banks busy for read cycles: 61518
6banks busy for write cycles: 0
7banks busy for read cycles: 12144
7banks busy for write cycles: 0
8banks busy for read cycles: 10910
8banks busy for write cycles: 0

CPU 0 Branch Prediction Accuracy: 97.9729% MPKI: 2.11932 Average ROB Occupancy at Mispredict: 139.607
Branch types
NOT_BRANCH: 174249430 87.1247%
BRANCH_DIRECT_JUMP: 4173606 2.0868%
BRANCH_INDIRECT: 0 0%
BRANCH_CONDITIONAL: 20909735 10.4549%
BRANCH_DIRECT_CALL: 333474 0.166737%
BRANCH_INDIRECT_CALL: 0 0%
BRANCH_RETURN: 333474 0.166737%
BRANCH_OTHER: 0 0%

DRAM PAGES: 1048576
Allocated PAGES: 3391
