 (TOTAL 67349)
 
*** ChampSim Multicore Out-of-Order Simulator ***

Warmup Instructions: 50000000
Simulation Instructions: 200000000
Number of CPUs: 1
LLC sets: 2048
LLC ways: 16
Off-chip DRAM Size: 4096 MB Channels: 1 Width: 64-bit Data Rate: 6400 MT/s
argv[0]: ./ChampSim/Berti/bin/tagescl8kb-no-vberti-no-no-no-no-no-lru-lru-lru-srrip-drrip-lru-lru-lru-1core-no
argv[1]: -warmup_instructions
argv[2]: 50000000
argv[3]: -simulation_instructions
argv[4]: 200000000
argv[5]: -traces
argv[6]: traces/spec2k17_ten/600.perlbench_s-1273B.champsimtrace.xz
CPU 0 runs traces/spec2k17_ten/600.perlbench_s-1273B.champsimtrace.xz
.xz
CPU 0 Tage branch predictor
BTB has LRU replacement policy
ITLB has LRU replacement policy
DTLB has LRU replacement policy
STLB has LRU replacement policy
L1I has LRU replacement policy
History Sets: 8
History Ways: 16
BERTI Size: 16
BERTI Stride Size: 16
L1D has LRU replacement policy
Initialize SRRIP state for L2C
Initialize DRRIP state for LLC
Heartbeat CPU 0 instructions: 10000002 cycles: 2864291 heartbeat IPC: 3.49127 cumulative IPC: 3.49127 (Simulation time: 0 hr 6 min 37 sec) 
Heartbeat CPU 0 instructions: 20000001 cycles: 5751369 heartbeat IPC: 3.46371 cumulative IPC: 3.47743 (Simulation time: 0 hr 13 min 5 sec) 
Heartbeat CPU 0 instructions: 30000002 cycles: 8528016 heartbeat IPC: 3.60147 cumulative IPC: 3.51782 (Simulation time: 0 hr 14 min 54 sec) 
Heartbeat CPU 0 instructions: 40000001 cycles: 11366022 heartbeat IPC: 3.5236 cumulative IPC: 3.51926 (Simulation time: 0 hr 18 min 20 sec) 
Heartbeat CPU 0 instructions: 50000001 cycles: 14222799 heartbeat IPC: 3.50045 cumulative IPC: 3.51548 (Simulation time: 0 hr 21 min 48 sec) 

Warmup complete CPU 0 instructions: 50000001 cycles: 14222799 (Simulation time: 0 hr 21 min 48 sec) 

Heartbeat CPU 0 instructions: 60000002 cycles: 28360169 heartbeat IPC: 0.707345 cumulative IPC: 0.707345 (Simulation time: 0 hr 24 min 45 sec) 
Heartbeat CPU 0 instructions: 70000000 cycles: 43393265 heartbeat IPC: 0.665199 cumulative IPC: 0.685625 (Simulation time: 0 hr 27 min 39 sec) 
Heartbeat CPU 0 instructions: 80000002 cycles: 57754303 heartbeat IPC: 0.696329 cumulative IPC: 0.689156 (Simulation time: 0 hr 29 min 43 sec) 
Heartbeat CPU 0 instructions: 90000000 cycles: 71830523 heartbeat IPC: 0.710418 cumulative IPC: 0.694351 (Simulation time: 0 hr 31 min 53 sec) 
Heartbeat CPU 0 instructions: 100000000 cycles: 85709083 heartbeat IPC: 0.720536 cumulative IPC: 0.699435 (Simulation time: 0 hr 35 min 59 sec) 
Heartbeat CPU 0 instructions: 110000000 cycles: 100548855 heartbeat IPC: 0.673865 cumulative IPC: 0.695039 (Simulation time: 0 hr 38 min 51 sec) 
Heartbeat CPU 0 instructions: 120000000 cycles: 115886228 heartbeat IPC: 0.652002 cumulative IPC: 0.688546 (Simulation time: 0 hr 40 min 53 sec) 
Heartbeat CPU 0 instructions: 130000002 cycles: 130698880 heartbeat IPC: 0.675099 cumulative IPC: 0.686836 (Simulation time: 0 hr 43 min 27 sec) 
Heartbeat CPU 0 instructions: 140000002 cycles: 145753894 heartbeat IPC: 0.664231 cumulative IPC: 0.684249 (Simulation time: 0 hr 48 min 33 sec) 
Heartbeat CPU 0 instructions: 150000000 cycles: 159659424 heartbeat IPC: 0.719138 cumulative IPC: 0.687585 (Simulation time: 0 hr 54 min 49 sec) 
Heartbeat CPU 0 instructions: 160000001 cycles: 174312328 heartbeat IPC: 0.682459 cumulative IPC: 0.687115 (Simulation time: 1 hr 1 min 23 sec) 
Heartbeat CPU 0 instructions: 170000001 cycles: 189064835 heartbeat IPC: 0.677851 cumulative IPC: 0.686334 (Simulation time: 1 hr 9 min 36 sec) 
Heartbeat CPU 0 instructions: 180000002 cycles: 204423766 heartbeat IPC: 0.651087 cumulative IPC: 0.683488 (Simulation time: 1 hr 13 min 25 sec) 
Heartbeat CPU 0 instructions: 190000002 cycles: 219586407 heartbeat IPC: 0.659516 cumulative IPC: 0.681718 (Simulation time: 1 hr 15 min 9 sec) 
Heartbeat CPU 0 instructions: 200000000 cycles: 233676542 heartbeat IPC: 0.709716 cumulative IPC: 0.683515 (Simulation time: 1 hr 20 min 20 sec) 
Heartbeat CPU 0 instructions: 210000000 cycles: 247670555 heartbeat IPC: 0.714591 cumulative IPC: 0.685378 (Simulation time: 1 hr 23 min 35 sec) 
Heartbeat CPU 0 instructions: 220000000 cycles: 262773280 heartbeat IPC: 0.662132 cumulative IPC: 0.683966 (Simulation time: 1 hr 30 min 27 sec) 
Heartbeat CPU 0 instructions: 230000000 cycles: 277400742 heartbeat IPC: 0.683646 cumulative IPC: 0.683948 (Simulation time: 1 hr 32 min 33 sec) 
Heartbeat CPU 0 instructions: 240000000 cycles: 292792523 heartbeat IPC: 0.649697 cumulative IPC: 0.682055 (Simulation time: 1 hr 36 min 28 sec) 
Heartbeat CPU 0 instructions: 250000002 cycles: 308454655 heartbeat IPC: 0.638483 cumulative IPC: 0.679736 (Simulation time: 1 hr 41 min 9 sec) 
Finished CPU 0 instructions: 200000001 cycles: 294231856 cumulative IPC: 0.679736 (Simulation time: 1 hr 41 min 9 sec) 

ChampSim completed all CPUs

Region of Interest Statistics

CPU 0 cumulative IPC: 0.679736 instructions: 200000001 cycles: 294231856
ITLB TOTAL     ACCESS:   29192268  HIT:   29191507  MISS:        761  HIT %:    99.9974  MISS %: 0.00260685   MPKI: 0.003805
ITLB LOAD TRANSLATION ACCESS:   29192268  HIT:   29191507  MISS:        761  HIT %:    99.9974  MISS %: 0.00260685   MPKI: 0.003805
ITLB PREFETCH  REQUESTED:          0  ISSUED:          0  USEFUL:          0  USELESS:          0
ITLB USEFUL LOAD PREFETCHES:          0 PREFETCH ISSUED TO LOWER LEVEL:          0  ACCURACY: -nan
ITLB TIMELY PREFETCHES:          0 LATE PREFETCHES: 0 DROPPED PREFETCHES: 0
ITLB PREFETCHES SAME FILL-ORIGIN LEVEL: 0 DIFFERENT FILL-ORIGIN LEVEL: 0
ITLB AVERAGE MISS LATENCY: 10.0013 cycles
ITLB RQ	ACCESS:   32965184	FORWARD:          0	MERGED:    3772711	TO_CACHE:   29192473

DTLB TOTAL     ACCESS:   49385898  HIT:   49359511  MISS:      26387  HIT %:    99.9466  MISS %:  0.0534302   MPKI: 0.131935
DTLB LOAD TRANSLATION ACCESS:   49385898  HIT:   49359511  MISS:      26387  HIT %:    99.9466  MISS %:  0.0534302   MPKI: 0.131935
DTLB PREFETCH  REQUESTED:          0  ISSUED:          0  USEFUL:          0  USELESS:          0
DTLB USEFUL LOAD PREFETCHES:          0 PREFETCH ISSUED TO LOWER LEVEL:          0  ACCURACY: -nan
DTLB TIMELY PREFETCHES:          0 LATE PREFETCHES: 0 DROPPED PREFETCHES: 0
DTLB PREFETCHES SAME FILL-ORIGIN LEVEL: 0 DIFFERENT FILL-ORIGIN LEVEL: 0
DTLB AVERAGE MISS LATENCY: 15.5513 cycles
DTLB RQ	ACCESS:   76454379	FORWARD:          0	MERGED:   27067529	TO_CACHE:   49386850

STLB TOTAL     ACCESS:      62015  HIT:      60938  MISS:       1077  HIT %:    98.2633  MISS %:    1.73668   MPKI: 0.005385
STLB LOAD TRANSLATION ACCESS:      27148  HIT:      26071  MISS:       1077  HIT %:    96.0329  MISS %:    3.96714   MPKI: 0.005385
STLB TRANSLATION FROM L1D PREFETCHER ACCESS:      34867  HIT:      34867  MISS:          0  HIT %:        100  MISS %:          0   MPKI: 0
STLB PREFETCH  REQUESTED:          0  ISSUED:          0  USEFUL:          0  USELESS:          0
STLB USEFUL LOAD PREFETCHES:          0 PREFETCH ISSUED TO LOWER LEVEL:          0  ACCURACY: -nan
STLB TIMELY PREFETCHES:          0 LATE PREFETCHES: 0 DROPPED PREFETCHES: 8000
STLB PREFETCHES SAME FILL-ORIGIN LEVEL: 0 DIFFERENT FILL-ORIGIN LEVEL: 0
STLB AVERAGE MISS LATENCY: 159.844 cycles
STLB RQ	ACCESS:     100723	FORWARD:          0	MERGED:      30708	TO_CACHE:      70015

STLB Hit, L1D data hit: 0
STLB Hit, L2C data hit: 0
STLB Hit, LLC data hit: 0
STLB Hit, LLC data miss: 0
STLB STLB hints to L2: 0
L1D TOTAL     ACCESS:   76493386  HIT:   76479324  MISS:      14062  HIT %:    99.9816  MISS %:  0.0183833   MPKI: 0.07031
L1D LOAD      ACCESS:   33536030  HIT:   33522481  MISS:      13549  HIT %:    99.9596  MISS %:  0.0404013   MPKI: 0.067745
L1D RFO       ACCESS:   42915615  HIT:   42915102  MISS:        513  HIT %:    99.9988  MISS %: 0.00119537   MPKI: 0.002565
L1D PREFETCH  ACCESS:      41741  HIT:      41741  MISS:          0  HIT %:        100  MISS %:          0   MPKI: 0
L1D PREFETCH  REQUESTED:     147150  ISSUED:     147150  USEFUL:          0  USELESS:          0
L1D USEFUL LOAD PREFETCHES:          0 PREFETCH ISSUED TO LOWER LEVEL:      15285  ACCURACY: 0
L1D TIMELY PREFETCHES:          0 LATE PREFETCHES: 0 DROPPED PREFETCHES: 16540
L1D PREFETCHES SAME FILL-ORIGIN LEVEL: 0 DIFFERENT FILL-ORIGIN LEVEL: 15285
L1D AVERAGE MISS LATENCY: 171.563 cycles
L1D RQ	ACCESS:   43336803	FORWARD:          0	MERGED:    8390831	TO_CACHE:   33537553
L1D WQ	ACCESS:   43394697	FORWARD:    1408419	MERGED:     477871	TO_CACHE:   42916826
L1D PQ	ACCESS:      73575	FORWARD:          0	MERGED:          0	TO_CACHE:      73575

L1D UNIQUE REGIONS ACCESSED: 0
L1D REGIONS CONFLICTS: 0
L1D Cross Page Prefetch Requests: 28076
L1D Same Page Prefetch Requests: 110105
L1D ROI Sum of L1D PQ occupancy: 1485999
L1D PREFETCHES PUSHED FROM L2C: 0
L1I TOTAL     ACCESS:   32963231  HIT:   32956745  MISS:       6486  HIT %:    99.9803  MISS %:  0.0196765   MPKI: 0.03243
L1I LOAD      ACCESS:   32963231  HIT:   32956745  MISS:       6486  HIT %:    99.9803  MISS %:  0.0196765   MPKI: 0.03243
L1I PREFETCH  REQUESTED:          0  ISSUED:          0  USEFUL:          0  USELESS:          0
L1I USEFUL LOAD PREFETCHES:          0 PREFETCH ISSUED TO LOWER LEVEL:          0  ACCURACY: -nan
L1I TIMELY PREFETCHES:          0 LATE PREFETCHES: 0 DROPPED PREFETCHES: 0
L1I PREFETCHES SAME FILL-ORIGIN LEVEL: 0 DIFFERENT FILL-ORIGIN LEVEL: 0
L1I AVERAGE MISS LATENCY: 19.8489 cycles
L1I RQ	ACCESS:   53278943	FORWARD:          0	MERGED:   20313759	TO_CACHE:   32965184

BTB TOTAL     ACCESS:   20873022  HIT:   19824050  MISS:    1048972  HIT %:    94.9745  MISS %:    5.02549   MPKI: 5.24486
BTB BRANCH_DIRECT_JUMP	ACCESS:    4037157  HIT:    4036964  MISS:        193
BTB BRANCH_INDIRECT	ACCESS:    1460816  HIT:     433996  MISS:    1026820
BTB BRANCH_CONDITIONAL	ACCESS:   12481268  HIT:   12480714  MISS:        554
BTB BRANCH_DIRECT_CALL	ACCESS:    1421423  HIT:    1421341  MISS:         82
BTB BRANCH_INDIRECT_CALL	ACCESS:      25468  HIT:      13857  MISS:      11611
BTB BRANCH_RETURN	ACCESS:    1446890  HIT:    1437178  MISS:       9712
BTB BRANCH_OTHER ACCESS:          0  HIT:          0  MISS:          0

L2C TOTAL     ACCESS:      54465  HIT:      39761  MISS:      14704  HIT %:    73.0028  MISS %:    26.9972   MPKI: 0.07352
L2C LOAD      ACCESS:      20035  HIT:       6639  MISS:      13396  HIT %:     33.137  MISS %:     66.863   MPKI: 0.06698
L2C DATA LOAD MPKI: 0.06536
L2C INSTRUCTION LOAD MPKI: 0.00162
L2C RFO       ACCESS:        513  HIT:         85  MISS:        428  HIT %:    16.5692  MISS %:    83.4308   MPKI: 0.00214
L2C PREFETCH  ACCESS:      15277  HIT:      14674  MISS:        603  HIT %:    96.0529  MISS %:    3.94711   MPKI: 0.003015
L2C DATA PREFETCH MPKI: 0.003015
L2C INSTRUCTION PREFETCH MPKI: 0
L2C WRITEBACK ACCESS:       1729  HIT:       1727  MISS:          2  HIT %:    99.8843  MISS %:   0.115674   MPKI: 1e-05
L2C LOAD TRANSLATION ACCESS:       1159  HIT:        889  MISS:        270  HIT %:    76.7041  MISS %:    23.2959   MPKI: 0.00135
L2C TRANSLATION FROM L1D PREFETCHER ACCESS:      15752  HIT:      15747  MISS:          5  HIT %:    99.9683  MISS %:   0.031742   MPKI: 2.5e-05
L2C PREFETCH  REQUESTED:          0  ISSUED:          0  USEFUL:        212  USELESS:        339
L2C USEFUL LOAD PREFETCHES:        212 PREFETCH ISSUED TO LOWER LEVEL:        604  ACCURACY: 35.0993
L2C TIMELY PREFETCHES:        212 LATE PREFETCHES: 1 DROPPED PREFETCHES: 0
L2C PREFETCHES SAME FILL-ORIGIN LEVEL: 604 DIFFERENT FILL-ORIGIN LEVEL: 0
L2C AVERAGE MISS LATENCY: 161.341 cycles
L2C RQ	ACCESS:      37459	FORWARD:          0	MERGED:          0	TO_CACHE:      37459
L2C WQ	ACCESS:       1729	FORWARD:          0	MERGED:          0	TO_CACHE:       1729
L2C PQ	ACCESS:      15285	FORWARD:          0	MERGED:          0	TO_CACHE:      15285

L2C Instructions Evicting Data 223
L2C Translations Evicting Data 170
L2C Data Evicting Data 9373
L2C Instructions Evicting Instructions 4
L2C Translations Evicting Instructions 8
L2C Data Evicting Instructions 433
L2C Instructions Evicting Translations 6
L2C Translations Evicting Translations 3
L2C Data Evicting Translations 181
L2C Dense regions hint from L2: 0
PSCL5 TOTAL     ACCESS:       9077  HIT:       9077  MISS:          0  HIT %:        100  MISS %:          0   MPKI: 0
PSCL5 LOAD TRANSLATION ACCESS:       1077  HIT:       1077  MISS:          0  HIT %:        100  MISS %:          0   MPKI: 0
PSCL5 TRANSLATION FROM L1D PREFETCHER ACCESS:       8000  HIT:       8000  MISS:          0  HIT %:        100  MISS %:          0   MPKI: 0
PSCL5 PREFETCH  REQUESTED:          0  ISSUED:          0  USEFUL:          0  USELESS:          0
PSCL5 USEFUL LOAD PREFETCHES:          0 PREFETCH ISSUED TO LOWER LEVEL:          0  ACCURACY: -nan
PSCL5 TIMELY PREFETCHES:          0 LATE PREFETCHES: 0 DROPPED PREFETCHES: 0
PSCL5 PREFETCHES SAME FILL-ORIGIN LEVEL: 0 DIFFERENT FILL-ORIGIN LEVEL: 0

PSCL4 TOTAL     ACCESS:       9077  HIT:       9077  MISS:          0  HIT %:        100  MISS %:          0   MPKI: 0
PSCL4 LOAD TRANSLATION ACCESS:       1077  HIT:       1077  MISS:          0  HIT %:        100  MISS %:          0   MPKI: 0
PSCL4 TRANSLATION FROM L1D PREFETCHER ACCESS:       8000  HIT:       8000  MISS:          0  HIT %:        100  MISS %:          0   MPKI: 0
PSCL4 PREFETCH  REQUESTED:          0  ISSUED:          0  USEFUL:          0  USELESS:          0
PSCL4 USEFUL LOAD PREFETCHES:          0 PREFETCH ISSUED TO LOWER LEVEL:          0  ACCURACY: -nan
PSCL4 TIMELY PREFETCHES:          0 LATE PREFETCHES: 0 DROPPED PREFETCHES: 0
PSCL4 PREFETCHES SAME FILL-ORIGIN LEVEL: 0 DIFFERENT FILL-ORIGIN LEVEL: 0

PSCL3 TOTAL     ACCESS:       9077  HIT:       9077  MISS:          0  HIT %:        100  MISS %:          0   MPKI: 0
PSCL3 LOAD TRANSLATION ACCESS:       1077  HIT:       1077  MISS:          0  HIT %:        100  MISS %:          0   MPKI: 0
PSCL3 TRANSLATION FROM L1D PREFETCHER ACCESS:       8000  HIT:       8000  MISS:          0  HIT %:        100  MISS %:          0   MPKI: 0
PSCL3 PREFETCH  REQUESTED:          0  ISSUED:          0  USEFUL:          0  USELESS:          0
PSCL3 USEFUL LOAD PREFETCHES:          0 PREFETCH ISSUED TO LOWER LEVEL:          0  ACCURACY: -nan
PSCL3 TIMELY PREFETCHES:          0 LATE PREFETCHES: 0 DROPPED PREFETCHES: 0
PSCL3 PREFETCHES SAME FILL-ORIGIN LEVEL: 0 DIFFERENT FILL-ORIGIN LEVEL: 0

PSCL2 TOTAL     ACCESS:       1325  HIT:       1210  MISS:        115  HIT %:    91.3208  MISS %:    8.67925   MPKI: 0.000575
PSCL2 LOAD TRANSLATION ACCESS:       1077  HIT:        962  MISS:        115  HIT %:    89.3222  MISS %:    10.6778   MPKI: 0.000575
PSCL2 TRANSLATION FROM L1D PREFETCHER ACCESS:        248  HIT:        248  MISS:          0  HIT %:        100  MISS %:          0   MPKI: 0
PSCL2 PREFETCH  REQUESTED:          0  ISSUED:          0  USEFUL:          0  USELESS:          0
PSCL2 USEFUL LOAD PREFETCHES:          0 PREFETCH ISSUED TO LOWER LEVEL:          0  ACCURACY: -nan
PSCL2 TIMELY PREFETCHES:          0 LATE PREFETCHES: 0 DROPPED PREFETCHES: 0
PSCL2 PREFETCHES SAME FILL-ORIGIN LEVEL: 0 DIFFERENT FILL-ORIGIN LEVEL: 0

LLC TOTAL     ACCESS:      14874  HIT:        371  MISS:      14503  HIT %:    2.49429  MISS %:    97.5057   MPKI: 0.072515
LLC LOAD      ACCESS:      13395  HIT:        184  MISS:      13211  HIT %:    1.37365  MISS %:    98.6264   MPKI: 0.066055
LLC RFO       ACCESS:        428  HIT:          0  MISS:        428  HIT %:          0  MISS %:        100   MPKI: 0.00214
LLC PREFETCH  ACCESS:        604  HIT:          0  MISS:        604  HIT %:          0  MISS %:        100   MPKI: 0.00302
LLC WRITEBACK ACCESS:        172  HIT:        168  MISS:          4  HIT %:    97.6744  MISS %:    2.32558   MPKI: 2e-05
LLC LOAD TRANSLATION ACCESS:        270  HIT:         19  MISS:        251  HIT %:    7.03704  MISS %:     92.963   MPKI: 0.001255
LLC TRANSLATION FROM L1D PREFETCHER ACCESS:          5  HIT:          0  MISS:          5  HIT %:          0  MISS %:        100   MPKI: 2.5e-05
LLC PREFETCH  REQUESTED:          0  ISSUED:          0  USEFUL:          1  USELESS:         11
LLC USEFUL LOAD PREFETCHES:          1 PREFETCH ISSUED TO LOWER LEVEL:        604  ACCURACY: 0.165563
LLC TIMELY PREFETCHES:          1 LATE PREFETCHES: 0 DROPPED PREFETCHES: 0
LLC PREFETCHES SAME FILL-ORIGIN LEVEL: 0 DIFFERENT FILL-ORIGIN LEVEL: 0
LLC AVERAGE MISS LATENCY: 132.941 cycles
LLC RQ	ACCESS:      14098	FORWARD:          0	MERGED:          0	TO_CACHE:      14098
LLC WQ	ACCESS:        172	FORWARD:          0	MERGED:          0	TO_CACHE:        172
LLC PQ	ACCESS:        604	FORWARD:          0	MERGED:          0	TO_CACHE:        604

LLC Dense regions hint to LLC: 0

RAW hits: 3170436
Loads Generated: 46507235
Loads sent to L1D: 43336803
Stores Generated: 43394675
Stores sent to L1D: 43394697
Major fault: 0 Minor fault: 1667
Allocated PAGES: 1667

DRAM Statistics
 CHANNEL 0
 RQ ROW_BUFFER_HIT:       5588  ROW_BUFFER_MISS:       8911
 DBUS_CONGESTED:          0
 WQ ROW_BUFFER_HIT:          0  ROW_BUFFER_MISS:          0  FULL:          0

 AVG_CONGESTED_CYCLE: -
 All warmup complete: 2
Channel 0 Bank busy for read cycles: 0
Channel 0 Bank busy for write cycles: 0
Channel 0
Rank 0
0banks busy for read cycles: 292843850
0banks busy for write cycles: 0
1banks busy for read cycles: 1192547
1banks busy for write cycles: 0
2banks busy for read cycles: 163620
2banks busy for write cycles: 0
3banks busy for read cycles: 31301
3banks busy for write cycles: 0
4banks busy for read cycles: 442
4banks busy for write cycles: 0
5banks busy for read cycles: 15
5banks busy for write cycles: 0
6banks busy for read cycles: 57
6banks busy for write cycles: 0
7banks busy for read cycles: 25
7banks busy for write cycles: 0
8banks busy for read cycles: 0
8banks busy for write cycles: 0

CPU 0 Branch Prediction Accuracy: 99.0896% MPKI: 0.893255 Average ROB Occupancy at Mispredict: 77.8793
Branch types
NOT_BRANCH: 171983788 85.9919%
BRANCH_DIRECT_JUMP: 4037157 2.01858%
BRANCH_INDIRECT: 1460816 0.730408%
BRANCH_CONDITIONAL: 19624118 9.81206%
BRANCH_DIRECT_CALL: 1421423 0.710711%
BRANCH_INDIRECT_CALL: 25468 0.012734%
BRANCH_RETURN: 1446890 0.723445%
BRANCH_OTHER: 0 0%

DRAM PAGES: 1048576
Allocated PAGES: 1667
