 (TOTAL 67349)
 
*** ChampSim Multicore Out-of-Order Simulator ***

Warmup Instructions: 50000000
Simulation Instructions: 200000000
Number of CPUs: 1
LLC sets: 2048
LLC ways: 16
Off-chip DRAM Size: 4096 MB Channels: 1 Width: 64-bit Data Rate: 6400 MT/s
argv[0]: ./ChampSim/Berti/bin/tagescl8kb-no-vberti-no-no-no-no-no-lru-lru-lru-srrip-drrip-lru-lru-lru-1core-no
argv[1]: -warmup_instructions
argv[2]: 50000000
argv[3]: -simulation_instructions
argv[4]: 200000000
argv[5]: -traces
argv[6]: traces/spec2k17_ten/600.perlbench_s-210B.champsimtrace.xz
CPU 0 runs traces/spec2k17_ten/600.perlbench_s-210B.champsimtrace.xz
.xz
CPU 0 Tage branch predictor
BTB has LRU replacement policy
ITLB has LRU replacement policy
DTLB has LRU replacement policy
STLB has LRU replacement policy
L1I has LRU replacement policy
History Sets: 8
History Ways: 16
BERTI Size: 16
BERTI Stride Size: 16
L1D has LRU replacement policy
Initialize SRRIP state for L2C
Initialize DRRIP state for LLC
Heartbeat CPU 0 instructions: 10000002 cycles: 2958481 heartbeat IPC: 3.38011 cumulative IPC: 3.38011 (Simulation time: 0 hr 5 min 29 sec) 
Heartbeat CPU 0 instructions: 20000000 cycles: 5831414 heartbeat IPC: 3.48076 cumulative IPC: 3.4297 (Simulation time: 0 hr 9 min 42 sec) 
Heartbeat CPU 0 instructions: 30000002 cycles: 8704817 heartbeat IPC: 3.48019 cumulative IPC: 3.44637 (Simulation time: 0 hr 12 min 29 sec) 
Heartbeat CPU 0 instructions: 40000003 cycles: 11591902 heartbeat IPC: 3.4637 cumulative IPC: 3.45069 (Simulation time: 0 hr 15 min 37 sec) 
Heartbeat CPU 0 instructions: 50000001 cycles: 14476140 heartbeat IPC: 3.46712 cumulative IPC: 3.45396 (Simulation time: 0 hr 19 min 28 sec) 

Warmup complete CPU 0 instructions: 50000001 cycles: 14476140 (Simulation time: 0 hr 19 min 28 sec) 

Heartbeat CPU 0 instructions: 60000001 cycles: 29073688 heartbeat IPC: 0.685047 cumulative IPC: 0.685047 (Simulation time: 0 hr 22 min 17 sec) 
Heartbeat CPU 0 instructions: 70000003 cycles: 40593899 heartbeat IPC: 0.86804 cumulative IPC: 0.765763 (Simulation time: 0 hr 25 min 24 sec) 
Heartbeat CPU 0 instructions: 80000000 cycles: 52476882 heartbeat IPC: 0.841539 cumulative IPC: 0.789458 (Simulation time: 0 hr 28 min 25 sec) 
Heartbeat CPU 0 instructions: 90000001 cycles: 67124784 heartbeat IPC: 0.682692 cumulative IPC: 0.759754 (Simulation time: 0 hr 33 min 36 sec) 
Heartbeat CPU 0 instructions: 100000003 cycles: 82298143 heartbeat IPC: 0.65905 cumulative IPC: 0.737224 (Simulation time: 0 hr 38 min 49 sec) 
Heartbeat CPU 0 instructions: 110000000 cycles: 96373954 heartbeat IPC: 0.710438 cumulative IPC: 0.73262 (Simulation time: 0 hr 42 min 54 sec) 
Heartbeat CPU 0 instructions: 120000003 cycles: 110589396 heartbeat IPC: 0.703461 cumulative IPC: 0.728307 (Simulation time: 0 hr 47 min 21 sec) 
Heartbeat CPU 0 instructions: 130000000 cycles: 126267333 heartbeat IPC: 0.637839 cumulative IPC: 0.71562 (Simulation time: 0 hr 54 min 18 sec) 
Heartbeat CPU 0 instructions: 140000002 cycles: 141742883 heartbeat IPC: 0.646181 cumulative IPC: 0.707176 (Simulation time: 1 hr 1 min 14 sec) 
Heartbeat CPU 0 instructions: 150000000 cycles: 156306813 heartbeat IPC: 0.686628 cumulative IPC: 0.705066 (Simulation time: 1 hr 8 min 20 sec) 
Heartbeat CPU 0 instructions: 160000000 cycles: 169875066 heartbeat IPC: 0.737015 cumulative IPC: 0.707856 (Simulation time: 1 hr 13 min 33 sec) 
Heartbeat CPU 0 instructions: 170000002 cycles: 184848032 heartbeat IPC: 0.66787 cumulative IPC: 0.704342 (Simulation time: 1 hr 17 min 32 sec) 
Heartbeat CPU 0 instructions: 180000000 cycles: 198316437 heartbeat IPC: 0.742478 cumulative IPC: 0.707135 (Simulation time: 1 hr 22 min 5 sec) 
Heartbeat CPU 0 instructions: 190000001 cycles: 212554634 heartbeat IPC: 0.702336 cumulative IPC: 0.706791 (Simulation time: 1 hr 29 min 17 sec) 
Heartbeat CPU 0 instructions: 200000000 cycles: 228520334 heartbeat IPC: 0.626343 cumulative IPC: 0.70079 (Simulation time: 1 hr 32 min 12 sec) 
Heartbeat CPU 0 instructions: 210000001 cycles: 244148477 heartbeat IPC: 0.639871 cumulative IPC: 0.696645 (Simulation time: 1 hr 36 min 32 sec) 
Heartbeat CPU 0 instructions: 220000000 cycles: 259534338 heartbeat IPC: 0.649947 cumulative IPC: 0.693713 (Simulation time: 1 hr 40 min 38 sec) 
Heartbeat CPU 0 instructions: 230000000 cycles: 275121992 heartbeat IPC: 0.641533 cumulative IPC: 0.690592 (Simulation time: 1 hr 43 min 22 sec) 
Heartbeat CPU 0 instructions: 240000000 cycles: 290589666 heartbeat IPC: 0.64651 cumulative IPC: 0.688123 (Simulation time: 1 hr 46 min 17 sec) 
Heartbeat CPU 0 instructions: 250000002 cycles: 303937644 heartbeat IPC: 0.749177 cumulative IPC: 0.690938 (Simulation time: 1 hr 51 min 49 sec) 
Finished CPU 0 instructions: 200000001 cycles: 289461504 cumulative IPC: 0.690938 (Simulation time: 1 hr 51 min 49 sec) 

ChampSim completed all CPUs

Region of Interest Statistics

CPU 0 cumulative IPC: 0.690938 instructions: 200000001 cycles: 289461504
ITLB TOTAL     ACCESS:   28776457  HIT:   28775941  MISS:        516  HIT %:    99.9982  MISS %: 0.00179313   MPKI: 0.00258
ITLB LOAD TRANSLATION ACCESS:   28776457  HIT:   28775941  MISS:        516  HIT %:    99.9982  MISS %: 0.00179313   MPKI: 0.00258
ITLB PREFETCH  REQUESTED:          0  ISSUED:          0  USEFUL:          0  USELESS:          0
ITLB USEFUL LOAD PREFETCHES:          0 PREFETCH ISSUED TO LOWER LEVEL:          0  ACCURACY: -nan
ITLB TIMELY PREFETCHES:          0 LATE PREFETCHES: 0 DROPPED PREFETCHES: 0
ITLB PREFETCHES SAME FILL-ORIGIN LEVEL: 0 DIFFERENT FILL-ORIGIN LEVEL: 0
ITLB AVERAGE MISS LATENCY: 16.5814 cycles
ITLB RQ	ACCESS:   32680121	FORWARD:          0	MERGED:    3903516	TO_CACHE:   28776605

DTLB TOTAL     ACCESS:   50337825  HIT:   50282918  MISS:      54907  HIT %:    99.8909  MISS %:   0.109077   MPKI: 0.274535
DTLB LOAD TRANSLATION ACCESS:   50337825  HIT:   50282918  MISS:      54907  HIT %:    99.8909  MISS %:   0.109077   MPKI: 0.274535
DTLB PREFETCH  REQUESTED:          0  ISSUED:          0  USEFUL:          0  USELESS:          0
DTLB USEFUL LOAD PREFETCHES:          0 PREFETCH ISSUED TO LOWER LEVEL:          0  ACCURACY: -nan
DTLB TIMELY PREFETCHES:          0 LATE PREFETCHES: 0 DROPPED PREFETCHES: 0
DTLB PREFETCHES SAME FILL-ORIGIN LEVEL: 0 DIFFERENT FILL-ORIGIN LEVEL: 0
DTLB AVERAGE MISS LATENCY: 11.3865 cycles
DTLB RQ	ACCESS:   77356565	FORWARD:          0	MERGED:   27017813	TO_CACHE:   50338752

STLB TOTAL     ACCESS:     249193  HIT:     248424  MISS:        769  HIT %:    99.6914  MISS %:   0.308596   MPKI: 0.003845
STLB LOAD TRANSLATION ACCESS:      55423  HIT:      54654  MISS:        769  HIT %:    98.6125  MISS %:    1.38751   MPKI: 0.003845
STLB TRANSLATION FROM L1D PREFETCHER ACCESS:     193770  HIT:     193770  MISS:          0  HIT %:        100  MISS %:          0   MPKI: 0
STLB PREFETCH  REQUESTED:          0  ISSUED:          0  USEFUL:          0  USELESS:          0
STLB USEFUL LOAD PREFETCHES:          0 PREFETCH ISSUED TO LOWER LEVEL:          0  ACCURACY: -nan
STLB TIMELY PREFETCHES:          0 LATE PREFETCHES: 0 DROPPED PREFETCHES: 7721
STLB PREFETCHES SAME FILL-ORIGIN LEVEL: 0 DIFFERENT FILL-ORIGIN LEVEL: 0
STLB AVERAGE MISS LATENCY: 172.042 cycles
STLB RQ	ACCESS:     271582	FORWARD:          0	MERGED:      14668	TO_CACHE:     256914

STLB Hit, L1D data hit: 0
STLB Hit, L2C data hit: 0
STLB Hit, LLC data hit: 0
STLB Hit, LLC data miss: 0
STLB STLB hints to L2: 0
L1D TOTAL     ACCESS:   77491148  HIT:   77477995  MISS:      13153  HIT %:     99.983  MISS %:  0.0169736   MPKI: 0.065765
L1D LOAD      ACCESS:   33929079  HIT:   33917112  MISS:      11967  HIT %:    99.9647  MISS %:  0.0352706   MPKI: 0.059835
L1D RFO       ACCESS:   43420538  HIT:   43419370  MISS:       1168  HIT %:    99.9973  MISS %: 0.00268997   MPKI: 0.00584
L1D PREFETCH  ACCESS:     141531  HIT:     141513  MISS:         18  HIT %:    99.9873  MISS %:  0.0127181   MPKI: 9e-05
L1D PREFETCH  REQUESTED:     438489  ISSUED:     438489  USEFUL:         17  USELESS:          1
L1D USEFUL LOAD PREFETCHES:         17 PREFETCH ISSUED TO LOWER LEVEL:      66808  ACCURACY: 0.0254461
L1D TIMELY PREFETCHES:         17 LATE PREFETCHES: 0 DROPPED PREFETCHES: 7725
L1D PREFETCHES SAME FILL-ORIGIN LEVEL: 18 DIFFERENT FILL-ORIGIN LEVEL: 66790
L1D AVERAGE MISS LATENCY: 129.21 cycles
L1D RQ	ACCESS:   43840290	FORWARD:          0	MERGED:    8539865	TO_CACHE:   33930623
L1D WQ	ACCESS:   43917093	FORWARD:    1369802	MERGED:     491151	TO_CACHE:   43425942
L1D PQ	ACCESS:     222330	FORWARD:          0	MERGED:       6171	TO_CACHE:     216159

L1D UNIQUE REGIONS ACCESSED: 0
L1D REGIONS CONFLICTS: 0
L1D Cross Page Prefetch Requests: 20463
L1D Same Page Prefetch Requests: 277270
L1D ROI Sum of L1D PQ occupancy: 3109148
L1D PREFETCHES PUSHED FROM L2C: 0
L1I TOTAL     ACCESS:   32678591  HIT:   32673051  MISS:       5540  HIT %:     99.983  MISS %:   0.016953   MPKI: 0.0277
L1I LOAD      ACCESS:   32678591  HIT:   32673051  MISS:       5540  HIT %:     99.983  MISS %:   0.016953   MPKI: 0.0277
L1I PREFETCH  REQUESTED:          0  ISSUED:          0  USEFUL:          0  USELESS:          0
L1I USEFUL LOAD PREFETCHES:          0 PREFETCH ISSUED TO LOWER LEVEL:          0  ACCURACY: -nan
L1I TIMELY PREFETCHES:          0 LATE PREFETCHES: 0 DROPPED PREFETCHES: 0
L1I PREFETCHES SAME FILL-ORIGIN LEVEL: 0 DIFFERENT FILL-ORIGIN LEVEL: 0
L1I AVERAGE MISS LATENCY: 32.0643 cycles
L1I RQ	ACCESS:   53364118	FORWARD:          0	MERGED:   20683997	TO_CACHE:   32680121

BTB TOTAL     ACCESS:   20534275  HIT:   19394536  MISS:    1139739  HIT %:    94.4496  MISS %:    5.55042   MPKI: 5.69869
BTB BRANCH_DIRECT_JUMP	ACCESS:    4037998  HIT:    4037726  MISS:        272
BTB BRANCH_INDIRECT	ACCESS:    1529071  HIT:     442771  MISS:    1086300
BTB BRANCH_CONDITIONAL	ACCESS:   12293103  HIT:   12292225  MISS:        878
BTB BRANCH_DIRECT_CALL	ACCESS:    1272425  HIT:    1272287  MISS:        138
BTB BRANCH_INDIRECT_CALL	ACCESS:      64627  HIT:      26952  MISS:      37675
BTB BRANCH_RETURN	ACCESS:    1337051  HIT:    1322575  MISS:      14476
BTB BRANCH_OTHER ACCESS:          0  HIT:          0  MISS:          0

L2C TOTAL     ACCESS:      99886  HIT:      89312  MISS:      10574  HIT %:    89.4139  MISS %:    10.5861   MPKI: 0.05287
L2C LOAD      ACCESS:      17506  HIT:       8579  MISS:       8927  HIT %:    49.0061  MISS %:    50.9939   MPKI: 0.044635
L2C DATA LOAD MPKI: 0.04112
L2C INSTRUCTION LOAD MPKI: 0.003515
L2C RFO       ACCESS:       1168  HIT:        199  MISS:        969  HIT %:    17.0377  MISS %:    82.9623   MPKI: 0.004845
L2C PREFETCH  ACCESS:      66789  HIT:      66382  MISS:        407  HIT %:    99.3906  MISS %:   0.609382   MPKI: 0.002035
L2C DATA PREFETCH MPKI: 0.002035
L2C INSTRUCTION PREFETCH MPKI: 0
L2C WRITEBACK ACCESS:       2206  HIT:       2166  MISS:         40  HIT %:    98.1868  MISS %:    1.81324   MPKI: 0.0002
L2C LOAD TRANSLATION ACCESS:        820  HIT:        593  MISS:        227  HIT %:    72.3171  MISS %:    27.6829   MPKI: 0.001135
L2C TRANSLATION FROM L1D PREFETCHER ACCESS:      11397  HIT:      11393  MISS:          4  HIT %:    99.9649  MISS %:   0.035097   MPKI: 2e-05
L2C PREFETCH  REQUESTED:          0  ISSUED:          0  USEFUL:        195  USELESS:        231
L2C USEFUL LOAD PREFETCHES:        195 PREFETCH ISSUED TO LOWER LEVEL:        409  ACCURACY: 47.6773
L2C TIMELY PREFETCHES:        195 LATE PREFETCHES: 2 DROPPED PREFETCHES: 0
L2C PREFETCHES SAME FILL-ORIGIN LEVEL: 407 DIFFERENT FILL-ORIGIN LEVEL: 0
L2C AVERAGE MISS LATENCY: 160.207 cycles
L2C RQ	ACCESS:      30892	FORWARD:          0	MERGED:          0	TO_CACHE:      30891
L2C WQ	ACCESS:       2206	FORWARD:          1	MERGED:          0	TO_CACHE:       2206
L2C PQ	ACCESS:      66808	FORWARD:          0	MERGED:          0	TO_CACHE:      66808

L2C Instructions Evicting Data 464
L2C Translations Evicting Data 114
L2C Data Evicting Data 5148
L2C Instructions Evicting Instructions 41
L2C Translations Evicting Instructions 12
L2C Data Evicting Instructions 521
L2C Instructions Evicting Translations 7
L2C Translations Evicting Translations 4
L2C Data Evicting Translations 144
L2C Dense regions hint from L2: 0
PSCL5 TOTAL     ACCESS:       8490  HIT:       8490  MISS:          0  HIT %:        100  MISS %:          0   MPKI: 0
PSCL5 LOAD TRANSLATION ACCESS:        769  HIT:        769  MISS:          0  HIT %:        100  MISS %:          0   MPKI: 0
PSCL5 TRANSLATION FROM L1D PREFETCHER ACCESS:       7721  HIT:       7721  MISS:          0  HIT %:        100  MISS %:          0   MPKI: 0
PSCL5 PREFETCH  REQUESTED:          0  ISSUED:          0  USEFUL:          0  USELESS:          0
PSCL5 USEFUL LOAD PREFETCHES:          0 PREFETCH ISSUED TO LOWER LEVEL:          0  ACCURACY: -nan
PSCL5 TIMELY PREFETCHES:          0 LATE PREFETCHES: 0 DROPPED PREFETCHES: 0
PSCL5 PREFETCHES SAME FILL-ORIGIN LEVEL: 0 DIFFERENT FILL-ORIGIN LEVEL: 0

PSCL4 TOTAL     ACCESS:       8490  HIT:       8490  MISS:          0  HIT %:        100  MISS %:          0   MPKI: 0
PSCL4 LOAD TRANSLATION ACCESS:        769  HIT:        769  MISS:          0  HIT %:        100  MISS %:          0   MPKI: 0
PSCL4 TRANSLATION FROM L1D PREFETCHER ACCESS:       7721  HIT:       7721  MISS:          0  HIT %:        100  MISS %:          0   MPKI: 0
PSCL4 PREFETCH  REQUESTED:          0  ISSUED:          0  USEFUL:          0  USELESS:          0
PSCL4 USEFUL LOAD PREFETCHES:          0 PREFETCH ISSUED TO LOWER LEVEL:          0  ACCURACY: -nan
PSCL4 TIMELY PREFETCHES:          0 LATE PREFETCHES: 0 DROPPED PREFETCHES: 0
PSCL4 PREFETCHES SAME FILL-ORIGIN LEVEL: 0 DIFFERENT FILL-ORIGIN LEVEL: 0

PSCL3 TOTAL     ACCESS:       8490  HIT:       8490  MISS:          0  HIT %:        100  MISS %:          0   MPKI: 0
PSCL3 LOAD TRANSLATION ACCESS:        769  HIT:        769  MISS:          0  HIT %:        100  MISS %:          0   MPKI: 0
PSCL3 TRANSLATION FROM L1D PREFETCHER ACCESS:       7721  HIT:       7721  MISS:          0  HIT %:        100  MISS %:          0   MPKI: 0
PSCL3 PREFETCH  REQUESTED:          0  ISSUED:          0  USEFUL:          0  USELESS:          0
PSCL3 USEFUL LOAD PREFETCHES:          0 PREFETCH ISSUED TO LOWER LEVEL:          0  ACCURACY: -nan
PSCL3 TIMELY PREFETCHES:          0 LATE PREFETCHES: 0 DROPPED PREFETCHES: 0
PSCL3 PREFETCHES SAME FILL-ORIGIN LEVEL: 0 DIFFERENT FILL-ORIGIN LEVEL: 0

PSCL2 TOTAL     ACCESS:       4814  HIT:       4749  MISS:         65  HIT %:    98.6498  MISS %:    1.35023   MPKI: 0.000325
PSCL2 LOAD TRANSLATION ACCESS:        769  HIT:        704  MISS:         65  HIT %:    91.5475  MISS %:    8.45254   MPKI: 0.000325
PSCL2 TRANSLATION FROM L1D PREFETCHER ACCESS:       4045  HIT:       4045  MISS:          0  HIT %:        100  MISS %:          0   MPKI: 0
PSCL2 PREFETCH  REQUESTED:          0  ISSUED:          0  USEFUL:          0  USELESS:          0
PSCL2 USEFUL LOAD PREFETCHES:          0 PREFETCH ISSUED TO LOWER LEVEL:          0  ACCURACY: -nan
PSCL2 TIMELY PREFETCHES:          0 LATE PREFETCHES: 0 DROPPED PREFETCHES: 0
PSCL2 PREFETCHES SAME FILL-ORIGIN LEVEL: 0 DIFFERENT FILL-ORIGIN LEVEL: 0

LLC TOTAL     ACCESS:      10727  HIT:        476  MISS:      10251  HIT %:     4.4374  MISS %:    95.5626   MPKI: 0.051255
LLC LOAD      ACCESS:       8925  HIT:        213  MISS:       8712  HIT %:    2.38655  MISS %:    97.6134   MPKI: 0.04356
LLC RFO       ACCESS:        969  HIT:          2  MISS:        967  HIT %:   0.206398  MISS %:    99.7936   MPKI: 0.004835
LLC PREFETCH  ACCESS:        409  HIT:         51  MISS:        358  HIT %:    12.4694  MISS %:    87.5306   MPKI: 0.00179
LLC WRITEBACK ACCESS:        193  HIT:        193  MISS:          0  HIT %:        100  MISS %:          0   MPKI: 0
LLC LOAD TRANSLATION ACCESS:        227  HIT:         16  MISS:        211  HIT %:    7.04846  MISS %:    92.9515   MPKI: 0.001055
LLC TRANSLATION FROM L1D PREFETCHER ACCESS:          4  HIT:          1  MISS:          3  HIT %:         25  MISS %:         75   MPKI: 1.5e-05
LLC PREFETCH  REQUESTED:          0  ISSUED:          0  USEFUL:          6  USELESS:          9
LLC USEFUL LOAD PREFETCHES:          6 PREFETCH ISSUED TO LOWER LEVEL:        358  ACCURACY: 1.67598
LLC TIMELY PREFETCHES:          6 LATE PREFETCHES: 0 DROPPED PREFETCHES: 0
LLC PREFETCHES SAME FILL-ORIGIN LEVEL: 0 DIFFERENT FILL-ORIGIN LEVEL: 0
LLC AVERAGE MISS LATENCY: 134.127 cycles
LLC RQ	ACCESS:      10125	FORWARD:          0	MERGED:          0	TO_CACHE:      10125
LLC WQ	ACCESS:        193	FORWARD:          0	MERGED:          0	TO_CACHE:        193
LLC PQ	ACCESS:        409	FORWARD:          0	MERGED:          0	TO_CACHE:        409

LLC Dense regions hint to LLC: 0

RAW hits: 3337361
Loads Generated: 47177654
Loads sent to L1D: 43840290
Stores Generated: 43917085
Stores sent to L1D: 43917093
Major fault: 0 Minor fault: 1378
Allocated PAGES: 1378

DRAM Statistics
 CHANNEL 0
 RQ ROW_BUFFER_HIT:       3836  ROW_BUFFER_MISS:       6415
 DBUS_CONGESTED:          0
 WQ ROW_BUFFER_HIT:          0  ROW_BUFFER_MISS:          0  FULL:          0

 AVG_CONGESTED_CYCLE: -
 All warmup complete: 2
Channel 0 Bank busy for read cycles: 0
Channel 0 Bank busy for write cycles: 0
Channel 0
Rank 0
0banks busy for read cycles: 288529586
0banks busy for write cycles: 0
1banks busy for read cycles: 786998
1banks busy for write cycles: 0
2banks busy for read cycles: 107653
2banks busy for write cycles: 0
3banks busy for read cycles: 22744
3banks busy for write cycles: 0
4banks busy for read cycles: 3099
4banks busy for write cycles: 0
5banks busy for read cycles: 3241
5banks busy for write cycles: 0
6banks busy for read cycles: 3564
6banks busy for write cycles: 0
7banks busy for read cycles: 3431
7banks busy for write cycles: 0
8banks busy for read cycles: 1189
8banks busy for write cycles: 0

CPU 0 Branch Prediction Accuracy: 99.1484% MPKI: 0.84234 Average ROB Occupancy at Mispredict: 75.8836
Branch types
NOT_BRANCH: 171976607 85.9883%
BRANCH_DIRECT_JUMP: 4037998 2.019%
BRANCH_INDIRECT: 1529071 0.764535%
BRANCH_CONDITIONAL: 19782074 9.89104%
BRANCH_DIRECT_CALL: 1272425 0.636212%
BRANCH_INDIRECT_CALL: 64627 0.0323135%
BRANCH_RETURN: 1337051 0.668525%
BRANCH_OTHER: 0 0%

DRAM PAGES: 1048576
Allocated PAGES: 1378
