 (TOTAL 67349)
 
*** ChampSim Multicore Out-of-Order Simulator ***

Warmup Instructions: 50000000
Simulation Instructions: 200000000
Number of CPUs: 1
LLC sets: 2048
LLC ways: 16
Off-chip DRAM Size: 4096 MB Channels: 1 Width: 64-bit Data Rate: 6400 MT/s
argv[0]: ./ChampSim/Berti/bin/tagescl8kb-no-vberti-no-no-no-no-no-lru-lru-lru-srrip-drrip-lru-lru-lru-1core-no
argv[1]: -warmup_instructions
argv[2]: 50000000
argv[3]: -simulation_instructions
argv[4]: 200000000
argv[5]: -traces
argv[6]: traces/spec2k17_ten/600.perlbench_s-570B.champsimtrace.xz
CPU 0 runs traces/spec2k17_ten/600.perlbench_s-570B.champsimtrace.xz
.xz
CPU 0 Tage branch predictor
BTB has LRU replacement policy
ITLB has LRU replacement policy
DTLB has LRU replacement policy
STLB has LRU replacement policy
L1I has LRU replacement policy
History Sets: 8
History Ways: 16
BERTI Size: 16
BERTI Stride Size: 16
L1D has LRU replacement policy
Initialize SRRIP state for L2C
Initialize DRRIP state for LLC
Heartbeat CPU 0 instructions: 10000003 cycles: 2894028 heartbeat IPC: 3.45539 cumulative IPC: 3.45539 (Simulation time: 0 hr 9 min 11 sec) 
Heartbeat CPU 0 instructions: 20000003 cycles: 5752833 heartbeat IPC: 3.49797 cumulative IPC: 3.47655 (Simulation time: 0 hr 13 min 2 sec) 
Heartbeat CPU 0 instructions: 30000003 cycles: 8648339 heartbeat IPC: 3.45363 cumulative IPC: 3.46887 (Simulation time: 0 hr 15 min 8 sec) 
Heartbeat CPU 0 instructions: 40000002 cycles: 11519691 heartbeat IPC: 3.48268 cumulative IPC: 3.47232 (Simulation time: 0 hr 19 min 10 sec) 
Heartbeat CPU 0 instructions: 50000002 cycles: 14389323 heartbeat IPC: 3.48477 cumulative IPC: 3.4748 (Simulation time: 0 hr 22 min 22 sec) 

Warmup complete CPU 0 instructions: 50000002 cycles: 14389323 (Simulation time: 0 hr 22 min 22 sec) 

Heartbeat CPU 0 instructions: 60000000 cycles: 28668844 heartbeat IPC: 0.700303 cumulative IPC: 0.700303 (Simulation time: 0 hr 25 min 15 sec) 
Heartbeat CPU 0 instructions: 70000000 cycles: 50961102 heartbeat IPC: 0.448586 cumulative IPC: 0.54687 (Simulation time: 0 hr 31 min 46 sec) 
Heartbeat CPU 0 instructions: 80000002 cycles: 74712744 heartbeat IPC: 0.421024 cumulative IPC: 0.497319 (Simulation time: 0 hr 37 min 17 sec) 
Heartbeat CPU 0 instructions: 90000003 cycles: 102975599 heartbeat IPC: 0.353821 cumulative IPC: 0.451537 (Simulation time: 0 hr 43 min 20 sec) 
Heartbeat CPU 0 instructions: 100000002 cycles: 118233346 heartbeat IPC: 0.655405 cumulative IPC: 0.481491 (Simulation time: 0 hr 48 min 14 sec) 
Heartbeat CPU 0 instructions: 110000000 cycles: 133412164 heartbeat IPC: 0.658813 cumulative IPC: 0.504105 (Simulation time: 0 hr 56 min 7 sec) 
Heartbeat CPU 0 instructions: 120000003 cycles: 149237271 heartbeat IPC: 0.631907 cumulative IPC: 0.519103 (Simulation time: 1 hr 3 min 39 sec) 
Heartbeat CPU 0 instructions: 130000000 cycles: 164987184 heartbeat IPC: 0.634924 cumulative IPC: 0.531216 (Simulation time: 1 hr 12 min 0 sec) 
Heartbeat CPU 0 instructions: 140000003 cycles: 193208925 heartbeat IPC: 0.354337 cumulative IPC: 0.503301 (Simulation time: 1 hr 19 min 2 sec) 
Heartbeat CPU 0 instructions: 150000002 cycles: 219808049 heartbeat IPC: 0.375952 cumulative IPC: 0.486811 (Simulation time: 1 hr 28 min 54 sec) 
Heartbeat CPU 0 instructions: 160000001 cycles: 241982865 heartbeat IPC: 0.450962 cumulative IPC: 0.483318 (Simulation time: 1 hr 36 min 18 sec) 
Heartbeat CPU 0 instructions: 170000001 cycles: 258810897 heartbeat IPC: 0.594247 cumulative IPC: 0.490955 (Simulation time: 1 hr 40 min 45 sec) 
Heartbeat CPU 0 instructions: 180000000 cycles: 279602517 heartbeat IPC: 0.480963 cumulative IPC: 0.490172 (Simulation time: 1 hr 47 min 0 sec) 
Heartbeat CPU 0 instructions: 190000001 cycles: 308004622 heartbeat IPC: 0.352087 cumulative IPC: 0.476814 (Simulation time: 1 hr 54 min 16 sec) 
Heartbeat CPU 0 instructions: 200000001 cycles: 335217960 heartbeat IPC: 0.367467 cumulative IPC: 0.467539 (Simulation time: 2 hr 0 min 22 sec) 
Heartbeat CPU 0 instructions: 210000000 cycles: 356189857 heartbeat IPC: 0.476829 cumulative IPC: 0.468109 (Simulation time: 2 hr 5 min 2 sec) 
Heartbeat CPU 0 instructions: 220000000 cycles: 372284839 heartbeat IPC: 0.621312 cumulative IPC: 0.474999 (Simulation time: 2 hr 7 min 58 sec) 
Heartbeat CPU 0 instructions: 230000000 cycles: 387093668 heartbeat IPC: 0.675273 cumulative IPC: 0.482957 (Simulation time: 2 hr 11 min 41 sec) 
Heartbeat CPU 0 instructions: 240000002 cycles: 402913289 heartbeat IPC: 0.632127 cumulative IPC: 0.48903 (Simulation time: 2 hr 14 min 0 sec) 
Heartbeat CPU 0 instructions: 250000003 cycles: 419306186 heartbeat IPC: 0.61002 cumulative IPC: 0.493929 (Simulation time: 2 hr 18 min 4 sec) 
Finished CPU 0 instructions: 200000001 cycles: 404916863 cumulative IPC: 0.493929 (Simulation time: 2 hr 18 min 4 sec) 

ChampSim completed all CPUs

Region of Interest Statistics

CPU 0 cumulative IPC: 0.493929 instructions: 200000001 cycles: 404916863
ITLB TOTAL     ACCESS:   31066922  HIT:   30992374  MISS:      74548  HIT %:      99.76  MISS %:   0.239959   MPKI: 0.37274
ITLB LOAD TRANSLATION ACCESS:   31066922  HIT:   30992374  MISS:      74548  HIT %:      99.76  MISS %:   0.239959   MPKI: 0.37274
ITLB PREFETCH  REQUESTED:          0  ISSUED:          0  USEFUL:          0  USELESS:          0
ITLB USEFUL LOAD PREFETCHES:          0 PREFETCH ISSUED TO LOWER LEVEL:          0  ACCURACY: -nan
ITLB TIMELY PREFETCHES:          0 LATE PREFETCHES: 0 DROPPED PREFETCHES: 0
ITLB PREFETCHES SAME FILL-ORIGIN LEVEL: 0 DIFFERENT FILL-ORIGIN LEVEL: 0
ITLB AVERAGE MISS LATENCY: 9.73903 cycles
ITLB RQ	ACCESS:   35492847	FORWARD:          0	MERGED:    4400446	TO_CACHE:   31092401

DTLB TOTAL     ACCESS:   54968344  HIT:   54430561  MISS:     537783  HIT %:    99.0216  MISS %:    0.97835   MPKI: 2.68891
DTLB LOAD TRANSLATION ACCESS:   54968344  HIT:   54430561  MISS:     537783  HIT %:    99.0216  MISS %:    0.97835   MPKI: 2.68891
DTLB PREFETCH  REQUESTED:          0  ISSUED:          0  USEFUL:          0  USELESS:          0
DTLB USEFUL LOAD PREFETCHES:          0 PREFETCH ISSUED TO LOWER LEVEL:          0  ACCURACY: -nan
DTLB TIMELY PREFETCHES:          0 LATE PREFETCHES: 0 DROPPED PREFETCHES: 0
DTLB PREFETCHES SAME FILL-ORIGIN LEVEL: 0 DIFFERENT FILL-ORIGIN LEVEL: 0
DTLB AVERAGE MISS LATENCY: 12.6489 cycles
DTLB RQ	ACCESS:   75543631	FORWARD:          0	MERGED:   20558567	TO_CACHE:   54985064

STLB TOTAL     ACCESS:     785910  HIT:     761973  MISS:      23937  HIT %:    96.9542  MISS %:    3.04577   MPKI: 0.119685
STLB LOAD TRANSLATION ACCESS:     612331  HIT:     588761  MISS:      23570  HIT %:    96.1508  MISS %:    3.84923   MPKI: 0.11785
STLB TRANSLATION FROM L1D PREFETCHER ACCESS:     173579  HIT:     173212  MISS:        367  HIT %:    99.7886  MISS %:   0.211431   MPKI: 0.001835
STLB PREFETCH  REQUESTED:          0  ISSUED:          0  USEFUL:        319  USELESS:         45
STLB USEFUL LOAD PREFETCHES:        319 PREFETCH ISSUED TO LOWER LEVEL:          0  ACCURACY: inf
STLB TIMELY PREFETCHES:        319 LATE PREFETCHES: 0 DROPPED PREFETCHES: 3795
STLB PREFETCHES SAME FILL-ORIGIN LEVEL: 0 DIFFERENT FILL-ORIGIN LEVEL: 0
STLB AVERAGE MISS LATENCY: 84.1766 cycles
STLB RQ	ACCESS:    1016886	FORWARD:          0	MERGED:     227175	TO_CACHE:     789711

STLB Hit, L1D data hit: 0
STLB Hit, L2C data hit: 0
STLB Hit, LLC data hit: 0
STLB Hit, LLC data miss: 0
STLB STLB hints to L2: 0
L1D TOTAL     ACCESS:   75599604  HIT:   75023285  MISS:     576319  HIT %:    99.2377  MISS %:   0.762331   MPKI: 2.88159
L1D LOAD      ACCESS:   36252110  HIT:   35731489  MISS:     520621  HIT %:    98.5639  MISS %:    1.43611   MPKI: 2.6031
L1D RFO       ACCESS:   39165106  HIT:   39116138  MISS:      48968  HIT %:     99.875  MISS %:    0.12503   MPKI: 0.24484
L1D PREFETCH  ACCESS:     182388  HIT:     175658  MISS:       6730  HIT %:    96.3101  MISS %:    3.68994   MPKI: 0.03365
L1D PREFETCH  REQUESTED:     822404  ISSUED:     822348  USEFUL:       4583  USELESS:       2147
L1D USEFUL LOAD PREFETCHES:       4583 PREFETCH ISSUED TO LOWER LEVEL:     219760  ACCURACY: 2.08546
L1D TIMELY PREFETCHES:       4583 LATE PREFETCHES: 44 DROPPED PREFETCHES: 6894
L1D PREFETCHES SAME FILL-ORIGIN LEVEL: 6774 DIFFERENT FILL-ORIGIN LEVEL: 212986
L1D AVERAGE MISS LATENCY: 74.1863 cycles
L1D RQ	ACCESS:   46852182	FORWARD:          0	MERGED:    9402341	TO_CACHE:   36288824
L1D WQ	ACCESS:   39740638	FORWARD:    1161017	MERGED:     485831	TO_CACHE:   39254807
L1D PQ	ACCESS:     417793	FORWARD:          0	MERGED:      13238	TO_CACHE:     404555

L1D UNIQUE REGIONS ACCESSED: 0
L1D REGIONS CONFLICTS: 0
L1D Cross Page Prefetch Requests: 58592
L1D Same Page Prefetch Requests: 422212
L1D ROI Sum of L1D PQ occupancy: 5865804
L1D PREFETCHES PUSHED FROM L2C: 0
L1I TOTAL     ACCESS:   35259418  HIT:   34385126  MISS:     874292  HIT %:    97.5204  MISS %:     2.4796   MPKI: 4.37146
L1I LOAD      ACCESS:   35259418  HIT:   34385126  MISS:     874292  HIT %:    97.5204  MISS %:     2.4796   MPKI: 4.37146
L1I PREFETCH  REQUESTED:          0  ISSUED:          0  USEFUL:          0  USELESS:          0
L1I USEFUL LOAD PREFETCHES:          0 PREFETCH ISSUED TO LOWER LEVEL:          0  ACCURACY: -nan
L1I TIMELY PREFETCHES:          0 LATE PREFETCHES: 0 DROPPED PREFETCHES: 0
L1I PREFETCHES SAME FILL-ORIGIN LEVEL: 0 DIFFERENT FILL-ORIGIN LEVEL: 0
L1I AVERAGE MISS LATENCY: 16.7456 cycles
L1I RQ	ACCESS:   56032454	FORWARD:          0	MERGED:   20539607	TO_CACHE:   35492847

BTB TOTAL     ACCESS:   25984964  HIT:   24489038  MISS:    1495926  HIT %:    94.2431  MISS %:    5.75689   MPKI: 7.47963
BTB BRANCH_DIRECT_JUMP	ACCESS:    4141048  HIT:    4130445  MISS:      10603
BTB BRANCH_INDIRECT	ACCESS:    1274734  HIT:     405661  MISS:     869073
BTB BRANCH_CONDITIONAL	ACCESS:   16683297  HIT:   16654181  MISS:      29116
BTB BRANCH_DIRECT_CALL	ACCESS:    1551808  HIT:    1544398  MISS:       7410
BTB BRANCH_INDIRECT_CALL	ACCESS:     391135  HIT:      53393  MISS:     337742
BTB BRANCH_RETURN	ACCESS:    1942942  HIT:    1700960  MISS:     241982
BTB BRANCH_OTHER ACCESS:          0  HIT:          0  MISS:          0

L2C TOTAL     ACCESS:    1848191  HIT:    1529055  MISS:     319136  HIT %:    82.7325  MISS %:    17.2675   MPKI: 1.59568
L2C LOAD      ACCESS:    1394866  HIT:    1145695  MISS:     249171  HIT %:    82.1366  MISS %:    17.8634   MPKI: 1.24585
L2C DATA LOAD MPKI: 1.0821
L2C INSTRUCTION LOAD MPKI: 0.163755
L2C RFO       ACCESS:      48968  HIT:      34503  MISS:      14465  HIT %:    70.4603  MISS %:    29.5397   MPKI: 0.072325
L2C PREFETCH  ACCESS:     216643  HIT:     175242  MISS:      41401  HIT %:    80.8898  MISS %:    19.1102   MPKI: 0.207005
L2C DATA PREFETCH MPKI: 0.207005
L2C INSTRUCTION PREFETCH MPKI: 0
L2C WRITEBACK ACCESS:     152757  HIT:     150229  MISS:       2528  HIT %:    98.3451  MISS %:    1.65492   MPKI: 0.01264
L2C LOAD TRANSLATION ACCESS:      28036  HIT:      16673  MISS:      11363  HIT %:      59.47  MISS %:      40.53   MPKI: 0.056815
L2C TRANSLATION FROM L1D PREFETCHER ACCESS:       6921  HIT:       6713  MISS:        208  HIT %:    96.9947  MISS %:    3.00535   MPKI: 0.00104
L2C PREFETCH  REQUESTED:          0  ISSUED:          0  USEFUL:      14488  USELESS:      27122
L2C USEFUL LOAD PREFETCHES:      14488 PREFETCH ISSUED TO LOWER LEVEL:      41926  ACCURACY: 34.5561
L2C TIMELY PREFETCHES:      14488 LATE PREFETCHES: 525 DROPPED PREFETCHES: 0
L2C PREFETCHES SAME FILL-ORIGIN LEVEL: 39894 DIFFERENT FILL-ORIGIN LEVEL: 0
L2C AVERAGE MISS LATENCY: 135.567 cycles
L2C RQ	ACCESS:    1478794	FORWARD:          0	MERGED:          0	TO_CACHE:    1478791
L2C WQ	ACCESS:     152757	FORWARD:          3	MERGED:          0	TO_CACHE:     152757
L2C PQ	ACCESS:     219760	FORWARD:          0	MERGED:          7	TO_CACHE:     219753

L2C Instructions Evicting Data 27067
L2C Translations Evicting Data 9634
L2C Data Evicting Data 234231
L2C Instructions Evicting Instructions 4063
L2C Translations Evicting Instructions 1338
L2C Data Evicting Instructions 26698
L2C Instructions Evicting Translations 1301
L2C Translations Evicting Translations 490
L2C Data Evicting Translations 9597
L2C Dense regions hint from L2: 0
PSCL5 TOTAL     ACCESS:      27732  HIT:      27732  MISS:          0  HIT %:        100  MISS %:          0   MPKI: 0
PSCL5 LOAD TRANSLATION ACCESS:      23570  HIT:      23570  MISS:          0  HIT %:        100  MISS %:          0   MPKI: 0
PSCL5 TRANSLATION FROM L1D PREFETCHER ACCESS:       4162  HIT:       4162  MISS:          0  HIT %:        100  MISS %:          0   MPKI: 0
PSCL5 PREFETCH  REQUESTED:          0  ISSUED:          0  USEFUL:          0  USELESS:          0
PSCL5 USEFUL LOAD PREFETCHES:          0 PREFETCH ISSUED TO LOWER LEVEL:          0  ACCURACY: -nan
PSCL5 TIMELY PREFETCHES:          0 LATE PREFETCHES: 0 DROPPED PREFETCHES: 0
PSCL5 PREFETCHES SAME FILL-ORIGIN LEVEL: 0 DIFFERENT FILL-ORIGIN LEVEL: 0

PSCL4 TOTAL     ACCESS:      27732  HIT:      27732  MISS:          0  HIT %:        100  MISS %:          0   MPKI: 0
PSCL4 LOAD TRANSLATION ACCESS:      23570  HIT:      23570  MISS:          0  HIT %:        100  MISS %:          0   MPKI: 0
PSCL4 TRANSLATION FROM L1D PREFETCHER ACCESS:       4162  HIT:       4162  MISS:          0  HIT %:        100  MISS %:          0   MPKI: 0
PSCL4 PREFETCH  REQUESTED:          0  ISSUED:          0  USEFUL:          0  USELESS:          0
PSCL4 USEFUL LOAD PREFETCHES:          0 PREFETCH ISSUED TO LOWER LEVEL:          0  ACCURACY: -nan
PSCL4 TIMELY PREFETCHES:          0 LATE PREFETCHES: 0 DROPPED PREFETCHES: 0
PSCL4 PREFETCHES SAME FILL-ORIGIN LEVEL: 0 DIFFERENT FILL-ORIGIN LEVEL: 0

PSCL3 TOTAL     ACCESS:      27732  HIT:      27732  MISS:          0  HIT %:        100  MISS %:          0   MPKI: 0
PSCL3 LOAD TRANSLATION ACCESS:      23570  HIT:      23570  MISS:          0  HIT %:        100  MISS %:          0   MPKI: 0
PSCL3 TRANSLATION FROM L1D PREFETCHER ACCESS:       4162  HIT:       4162  MISS:          0  HIT %:        100  MISS %:          0   MPKI: 0
PSCL3 PREFETCH  REQUESTED:          0  ISSUED:          0  USEFUL:          0  USELESS:          0
PSCL3 USEFUL LOAD PREFETCHES:          0 PREFETCH ISSUED TO LOWER LEVEL:          0  ACCURACY: -nan
PSCL3 TIMELY PREFETCHES:          0 LATE PREFETCHES: 0 DROPPED PREFETCHES: 0
PSCL3 PREFETCHES SAME FILL-ORIGIN LEVEL: 0 DIFFERENT FILL-ORIGIN LEVEL: 0

PSCL2 TOTAL     ACCESS:      25008  HIT:      20453  MISS:       4555  HIT %:    81.7858  MISS %:    18.2142   MPKI: 0.022775
PSCL2 LOAD TRANSLATION ACCESS:      23605  HIT:      19050  MISS:       4555  HIT %:    80.7032  MISS %:    19.2968   MPKI: 0.022775
PSCL2 TRANSLATION FROM L1D PREFETCHER ACCESS:       1403  HIT:       1403  MISS:          0  HIT %:        100  MISS %:          0   MPKI: 0
PSCL2 PREFETCH  REQUESTED:          0  ISSUED:          0  USEFUL:          0  USELESS:          0
PSCL2 USEFUL LOAD PREFETCHES:          0 PREFETCH ISSUED TO LOWER LEVEL:          0  ACCURACY: -nan
PSCL2 TIMELY PREFETCHES:          0 LATE PREFETCHES: 0 DROPPED PREFETCHES: 0
PSCL2 PREFETCHES SAME FILL-ORIGIN LEVEL: 0 DIFFERENT FILL-ORIGIN LEVEL: 0

LLC TOTAL     ACCESS:     368656  HIT:     134708  MISS:     233948  HIT %:    36.5403  MISS %:    63.4597   MPKI: 1.16974
LLC LOAD      ACCESS:     248646  HIT:      66239  MISS:     182407  HIT %:    26.6399  MISS %:    73.3601   MPKI: 0.912035
LLC RFO       ACCESS:      14465  HIT:       3740  MISS:      10725  HIT %:    25.8555  MISS %:    74.1445   MPKI: 0.053625
LLC PREFETCH  ACCESS:      41926  HIT:       6382  MISS:      35544  HIT %:    15.2221  MISS %:    84.7779   MPKI: 0.17772
LLC WRITEBACK ACCESS:      52048  HIT:      50673  MISS:       1375  HIT %:    97.3582  MISS %:    2.64179   MPKI: 0.006875
LLC LOAD TRANSLATION ACCESS:      11363  HIT:       7540  MISS:       3823  HIT %:    66.3557  MISS %:    33.6443   MPKI: 0.019115
LLC TRANSLATION FROM L1D PREFETCHER ACCESS:        208  HIT:        134  MISS:         74  HIT %:    64.4231  MISS %:    35.5769   MPKI: 0.00037
LLC PREFETCH  REQUESTED:          0  ISSUED:          0  USEFUL:        887  USELESS:      32362
LLC USEFUL LOAD PREFETCHES:        887 PREFETCH ISSUED TO LOWER LEVEL:      35544  ACCURACY: 2.4955
LLC TIMELY PREFETCHES:        887 LATE PREFETCHES: 0 DROPPED PREFETCHES: 0
LLC PREFETCHES SAME FILL-ORIGIN LEVEL: 0 DIFFERENT FILL-ORIGIN LEVEL: 0
LLC AVERAGE MISS LATENCY: 144.404 cycles
LLC RQ	ACCESS:     274682	FORWARD:          0	MERGED:          0	TO_CACHE:     274682
LLC WQ	ACCESS:      52048	FORWARD:          0	MERGED:          0	TO_CACHE:      52048
LLC PQ	ACCESS:      41926	FORWARD:          0	MERGED:          0	TO_CACHE:      41926

LLC Dense regions hint to LLC: 0

RAW hits: 2979051
Loads Generated: 49831232
Loads sent to L1D: 46852182
Stores Generated: 39740620
Stores sent to L1D: 39740638
Major fault: 0 Minor fault: 5924
Allocated PAGES: 5924

DRAM Statistics
 CHANNEL 0
 RQ ROW_BUFFER_HIT:      62909  ROW_BUFFER_MISS:     169664
 DBUS_CONGESTED:         40
 WQ ROW_BUFFER_HIT:       8300  ROW_BUFFER_MISS:      25474  FULL:          0

 AVG_CONGESTED_CYCLE: 3
 All warmup complete: 2
Channel 0 Bank busy for read cycles: 0
Channel 0 Bank busy for write cycles: 0
Channel 0
Rank 0
0banks busy for read cycles: 375637491
0banks busy for write cycles: 27132
1banks busy for read cycles: 20070077
1banks busy for write cycles: 4789292
2banks busy for read cycles: 2840222
2banks busy for write cycles: 619779
3banks busy for read cycles: 553485
3banks busy for write cycles: 99887
4banks busy for read cycles: 131824
4banks busy for write cycles: 20479
5banks busy for read cycles: 58573
5banks busy for write cycles: 6910
6banks busy for read cycles: 28413
6banks busy for write cycles: 2594
7banks busy for read cycles: 15360
7banks busy for write cycles: 1486
8banks busy for read cycles: 10766
8banks busy for write cycles: 3094

CPU 0 Branch Prediction Accuracy: 98.7365% MPKI: 1.49539 Average ROB Occupancy at Mispredict: 48.1102
Branch types
NOT_BRANCH: 167028103 83.5141%
BRANCH_DIRECT_JUMP: 4141048 2.07052%
BRANCH_INDIRECT: 1274734 0.637367%
BRANCH_CONDITIONAL: 23669876 11.8349%
BRANCH_DIRECT_CALL: 1551808 0.775904%
BRANCH_INDIRECT_CALL: 391135 0.195567%
BRANCH_RETURN: 1942942 0.971471%
BRANCH_OTHER: 0 0%

DRAM PAGES: 1048576
Allocated PAGES: 5924
