
*** ChampSim Multicore Out-of-Order Simulator ***

Warmup Instructions: 50000000
Simulation Instructions: 200000000
Number of CPUs: 1
LLC sets: 2048
LLC ways: 16
Off-chip DRAM Size: 4096 MB Channels: 1 Width: 64-bit Data Rate: 6400 MT/s
argv[0]: ./ChampSim/Berti/bin/multiperspective_perceptron8kb-no-vberti-no-no-no-no-no-lru-lru-lru-srrip-drrip-lru-lru-lru-1core-no
argv[1]: -warmup_instructions
argv[2]: 50000000
argv[3]: -simulation_instructions
argv[4]: 200000000
argv[5]: -traces
argv[6]: traces/spec2k17_ten/631.deepsjeng_s-928B.champsimtrace.xz
CPU 0 runs traces/spec2k17_ten/631.deepsjeng_s-928B.champsimtrace.xz
.xz
CPU 0 Multiperspective perceptron branch predictor
BTB has LRU replacement policy
ITLB has LRU replacement policy
DTLB has LRU replacement policy
STLB has LRU replacement policy
L1I has LRU replacement policy
History Sets: 8
History Ways: 16
BERTI Size: 16
BERTI Stride Size: 16
L1D has LRU replacement policy
Initialize SRRIP state for L2C
Initialize DRRIP state for LLC
Heartbeat CPU 0 instructions: 10000000 cycles: 2920776 heartbeat IPC: 3.42375 cumulative IPC: 3.42375 (Simulation time: 0 hr 9 min 11 sec) 
Heartbeat CPU 0 instructions: 20000000 cycles: 5868589 heartbeat IPC: 3.39235 cumulative IPC: 3.40797 (Simulation time: 0 hr 17 min 22 sec) 
Heartbeat CPU 0 instructions: 30000001 cycles: 8795222 heartbeat IPC: 3.4169 cumulative IPC: 3.41094 (Simulation time: 0 hr 25 min 41 sec) 
Heartbeat CPU 0 instructions: 40000003 cycles: 11717893 heartbeat IPC: 3.42153 cumulative IPC: 3.41358 (Simulation time: 0 hr 32 min 46 sec) 
Heartbeat CPU 0 instructions: 50000000 cycles: 14638115 heartbeat IPC: 3.4244 cumulative IPC: 3.41574 (Simulation time: 0 hr 38 min 51 sec) 

Warmup complete CPU 0 instructions: 50000004 cycles: 14638116 (Simulation time: 0 hr 38 min 51 sec) 

Heartbeat CPU 0 instructions: 60000000 cycles: 34868063 heartbeat IPC: 0.494317 cumulative IPC: 0.494316 (Simulation time: 0 hr 46 min 37 sec) 
Heartbeat CPU 0 instructions: 70000000 cycles: 54843056 heartbeat IPC: 0.500626 cumulative IPC: 0.497451 (Simulation time: 0 hr 54 min 48 sec) 
Heartbeat CPU 0 instructions: 80000002 cycles: 75056959 heartbeat IPC: 0.494709 cumulative IPC: 0.496534 (Simulation time: 1 hr 4 min 18 sec) 
Heartbeat CPU 0 instructions: 90000000 cycles: 95366793 heartbeat IPC: 0.492372 cumulative IPC: 0.495487 (Simulation time: 1 hr 12 min 34 sec) 
Heartbeat CPU 0 instructions: 100000000 cycles: 115698316 heartbeat IPC: 0.491847 cumulative IPC: 0.494755 (Simulation time: 1 hr 19 min 53 sec) 
Heartbeat CPU 0 instructions: 110000000 cycles: 135783362 heartbeat IPC: 0.497883 cumulative IPC: 0.495273 (Simulation time: 1 hr 26 min 5 sec) 
Heartbeat CPU 0 instructions: 120000003 cycles: 155764379 heartbeat IPC: 0.500475 cumulative IPC: 0.49601 (Simulation time: 1 hr 32 min 35 sec) 
Heartbeat CPU 0 instructions: 130000001 cycles: 175975807 heartbeat IPC: 0.494769 cumulative IPC: 0.495854 (Simulation time: 1 hr 40 min 32 sec) 
Heartbeat CPU 0 instructions: 140000002 cycles: 196243431 heartbeat IPC: 0.493398 cumulative IPC: 0.49558 (Simulation time: 1 hr 47 min 58 sec) 
Heartbeat CPU 0 instructions: 150000003 cycles: 216276001 heartbeat IPC: 0.499187 cumulative IPC: 0.495939 (Simulation time: 1 hr 54 min 30 sec) 
Heartbeat CPU 0 instructions: 160000001 cycles: 236406030 heartbeat IPC: 0.49677 cumulative IPC: 0.496014 (Simulation time: 2 hr 2 min 27 sec) 
Heartbeat CPU 0 instructions: 170000001 cycles: 256803584 heartbeat IPC: 0.490255 cumulative IPC: 0.495529 (Simulation time: 2 hr 7 min 56 sec) 
Heartbeat CPU 0 instructions: 180000002 cycles: 277201221 heartbeat IPC: 0.490253 cumulative IPC: 0.495119 (Simulation time: 2 hr 15 min 55 sec) 
Heartbeat CPU 0 instructions: 190000000 cycles: 297671229 heartbeat IPC: 0.488519 cumulative IPC: 0.494642 (Simulation time: 2 hr 22 min 49 sec) 
Heartbeat CPU 0 instructions: 200000001 cycles: 318312084 heartbeat IPC: 0.484476 cumulative IPC: 0.493951 (Simulation time: 2 hr 31 min 20 sec) 
Heartbeat CPU 0 instructions: 210000002 cycles: 338575712 heartbeat IPC: 0.493495 cumulative IPC: 0.493922 (Simulation time: 2 hr 39 min 18 sec) 
Heartbeat CPU 0 instructions: 220000000 cycles: 359072864 heartbeat IPC: 0.487873 cumulative IPC: 0.493562 (Simulation time: 2 hr 46 min 20 sec) 
Heartbeat CPU 0 instructions: 230000003 cycles: 379569717 heartbeat IPC: 0.48788 cumulative IPC: 0.493243 (Simulation time: 2 hr 54 min 19 sec) 
Heartbeat CPU 0 instructions: 240000003 cycles: 399674966 heartbeat IPC: 0.497383 cumulative IPC: 0.493459 (Simulation time: 3 hr 2 min 11 sec) 
Heartbeat CPU 0 instructions: 250000000 cycles: 419905574 heartbeat IPC: 0.4943 cumulative IPC: 0.493501 (Simulation time: 3 hr 8 min 58 sec) 
Finished CPU 0 instructions: 200000000 cycles: 405267478 cumulative IPC: 0.493501 (Simulation time: 3 hr 8 min 58 sec) 

ChampSim completed all CPUs

Region of Interest Statistics

CPU 0 cumulative IPC: 0.493501 instructions: 200000000 cycles: 405267478
ITLB TOTAL     ACCESS:   31321671  HIT:   31321669  MISS:          2  HIT %:        100  MISS %: 6.38536e-06   MPKI: 1e-05
ITLB LOAD TRANSLATION ACCESS:   31321671  HIT:   31321669  MISS:          2  HIT %:        100  MISS %: 6.38536e-06   MPKI: 1e-05
ITLB PREFETCH  REQUESTED:          0  ISSUED:          0  USEFUL:          0  USELESS:          0
ITLB USEFUL LOAD PREFETCHES:          0 PREFETCH ISSUED TO LOWER LEVEL:          0  ACCURACY: -nan
ITLB TIMELY PREFETCHES:          0 LATE PREFETCHES: 0 DROPPED PREFETCHES: 0
ITLB PREFETCHES SAME FILL-ORIGIN LEVEL: 0 DIFFERENT FILL-ORIGIN LEVEL: 0
ITLB AVERAGE MISS LATENCY: 225.5 cycles
ITLB RQ	ACCESS:   37009342	FORWARD:          0	MERGED:    5687673	TO_CACHE:   31321669

DTLB TOTAL     ACCESS:   47869766  HIT:   47815949  MISS:      53817  HIT %:    99.8876  MISS %:   0.112424   MPKI: 0.269085
DTLB LOAD TRANSLATION ACCESS:   47869766  HIT:   47815949  MISS:      53817  HIT %:    99.8876  MISS %:   0.112424   MPKI: 0.269085
DTLB PREFETCH  REQUESTED:          0  ISSUED:          0  USEFUL:          0  USELESS:          0
DTLB USEFUL LOAD PREFETCHES:          0 PREFETCH ISSUED TO LOWER LEVEL:          0  ACCURACY: -nan
DTLB TIMELY PREFETCHES:          0 LATE PREFETCHES: 0 DROPPED PREFETCHES: 0
DTLB PREFETCHES SAME FILL-ORIGIN LEVEL: 0 DIFFERENT FILL-ORIGIN LEVEL: 0
DTLB AVERAGE MISS LATENCY: 206.887 cycles
DTLB RQ	ACCESS:   59021158	FORWARD:          0	MERGED:   11147454	TO_CACHE:   47873704

STLB TOTAL     ACCESS:     122792  HIT:      86341  MISS:      36451  HIT %:    70.3148  MISS %:    29.6852   MPKI: 0.182255
STLB LOAD TRANSLATION ACCESS:      53819  HIT:      17399  MISS:      36420  HIT %:    32.3287  MISS %:    67.6713   MPKI: 0.1821
STLB TRANSLATION FROM L1D PREFETCHER ACCESS:      68973  HIT:      68942  MISS:         31  HIT %:    99.9551  MISS %:  0.0449451   MPKI: 0.000155
STLB PREFETCH  REQUESTED:          0  ISSUED:          0  USEFUL:         31  USELESS:          0
STLB USEFUL LOAD PREFETCHES:         31 PREFETCH ISSUED TO LOWER LEVEL:          0  ACCURACY: inf
STLB TIMELY PREFETCHES:         31 LATE PREFETCHES: 0 DROPPED PREFETCHES: 895
STLB PREFETCHES SAME FILL-ORIGIN LEVEL: 0 DIFFERENT FILL-ORIGIN LEVEL: 0
STLB AVERAGE MISS LATENCY: 292.221 cycles
STLB RQ	ACCESS:     139936	FORWARD:          0	MERGED:      16249	TO_CACHE:     123687

STLB Hit, L1D data hit: 0
STLB Hit, L2C data hit: 0
STLB Hit, LLC data hit: 0
STLB Hit, LLC data miss: 0
STLB STLB hints to L2: 0
L1D TOTAL     ACCESS:   59032201  HIT:   58898650  MISS:     133551  HIT %:    99.7738  MISS %:   0.226234   MPKI: 0.667755
L1D LOAD      ACCESS:   35963087  HIT:   35864549  MISS:      98538  HIT %:     99.726  MISS %:   0.273998   MPKI: 0.49269
L1D RFO       ACCESS:   23017007  HIT:   22981996  MISS:      35011  HIT %:    99.8479  MISS %:   0.152109   MPKI: 0.175055
L1D PREFETCH  ACCESS:      52107  HIT:      52105  MISS:          2  HIT %:    99.9962  MISS %: 0.00383826   MPKI: 1e-05
L1D PREFETCH  REQUESTED:     172274  ISSUED:     172274  USEFUL:          1  USELESS:          1
L1D USEFUL LOAD PREFETCHES:          1 PREFETCH ISSUED TO LOWER LEVEL:      32697  ACCURACY: 0.00305838
L1D TIMELY PREFETCHES:          1 LATE PREFETCHES: 0 DROPPED PREFETCHES: 1291
L1D PREFETCHES SAME FILL-ORIGIN LEVEL: 2 DIFFERENT FILL-ORIGIN LEVEL: 32695
L1D AVERAGE MISS LATENCY: 88.564 cycles
L1D RQ	ACCESS:   48601658	FORWARD:          0	MERGED:   11322708	TO_CACHE:   35966227
L1D WQ	ACCESS:   23718043	FORWARD:    1312727	MERGED:     663112	TO_CACHE:   23054931
L1D PQ	ACCESS:      86157	FORWARD:          0	MERGED:         36	TO_CACHE:      86117

L1D UNIQUE REGIONS ACCESSED: 0
L1D REGIONS CONFLICTS: 0
L1D Cross Page Prefetch Requests: 11488
L1D Same Page Prefetch Requests: 92295
L1D ROI Sum of L1D PQ occupancy: 1190255
L1D PREFETCHES PUSHED FROM L2C: 0
L1I TOTAL     ACCESS:   36919124  HIT:   36716908  MISS:     202216  HIT %:    99.4523  MISS %:   0.547727   MPKI: 1.01108
L1I LOAD      ACCESS:   36919124  HIT:   36716908  MISS:     202216  HIT %:    99.4523  MISS %:   0.547727   MPKI: 1.01108
L1I PREFETCH  REQUESTED:          0  ISSUED:          0  USEFUL:          0  USELESS:          0
L1I USEFUL LOAD PREFETCHES:          0 PREFETCH ISSUED TO LOWER LEVEL:          0  ACCURACY: -nan
L1I TIMELY PREFETCHES:          0 LATE PREFETCHES: 0 DROPPED PREFETCHES: 0
L1I PREFETCHES SAME FILL-ORIGIN LEVEL: 0 DIFFERENT FILL-ORIGIN LEVEL: 0
L1I AVERAGE MISS LATENCY: 14.2947 cycles
L1I RQ	ACCESS:   55064024	FORWARD:          0	MERGED:   18054682	TO_CACHE:   37009342

BTB TOTAL     ACCESS:   26794574  HIT:   24453401  MISS:    2341173  HIT %:    91.2625  MISS %:    8.73749   MPKI: 11.7059
BTB BRANCH_DIRECT_JUMP	ACCESS:    1701453  HIT:    1701282  MISS:        171
BTB BRANCH_INDIRECT	ACCESS:     162268  HIT:     151442  MISS:      10826
BTB BRANCH_CONDITIONAL	ACCESS:   16815220  HIT:   16812247  MISS:       2973
BTB BRANCH_DIRECT_CALL	ACCESS:    4057818  HIT:    4055363  MISS:       2455
BTB BRANCH_INDIRECT_CALL	ACCESS:          0  HIT:          0  MISS:          0
BTB BRANCH_RETURN	ACCESS:    4057815  HIT:    1733067  MISS:    2324748
BTB BRANCH_OTHER ACCESS:          0  HIT:          0  MISS:          0

L2C TOTAL     ACCESS:     525113  HIT:     425924  MISS:      99189  HIT %:    81.1109  MISS %:    18.8891   MPKI: 0.495945
L2C LOAD      ACCESS:     300754  HIT:     243299  MISS:      57455  HIT %:    80.8963  MISS %:    19.1037   MPKI: 0.287275
L2C DATA LOAD MPKI: 0.284375
L2C INSTRUCTION LOAD MPKI: 0.0029
L2C RFO       ACCESS:      35011  HIT:      33098  MISS:       1913  HIT %:     94.536  MISS %:      5.464   MPKI: 0.009565
L2C PREFETCH  ACCESS:      32673  HIT:      28906  MISS:       3767  HIT %:    88.4706  MISS %:    11.5294   MPKI: 0.018835
L2C DATA PREFETCH MPKI: 0.018835
L2C INSTRUCTION PREFETCH MPKI: 0
L2C WRITEBACK ACCESS:      80634  HIT:      79794  MISS:        840  HIT %:    98.9583  MISS %:    1.04174   MPKI: 0.0042
L2C LOAD TRANSLATION ACCESS:      73504  HIT:      38315  MISS:      35189  HIT %:    52.1264  MISS %:    47.8736   MPKI: 0.175945
L2C TRANSLATION FROM L1D PREFETCHER ACCESS:       2537  HIT:       2512  MISS:         25  HIT %:    99.0146  MISS %:   0.985416   MPKI: 0.000125
L2C PREFETCH  REQUESTED:          0  ISSUED:          0  USEFUL:        865  USELESS:       2581
L2C USEFUL LOAD PREFETCHES:        865 PREFETCH ISSUED TO LOWER LEVEL:       3767  ACCURACY: 22.9626
L2C TIMELY PREFETCHES:        865 LATE PREFETCHES: 0 DROPPED PREFETCHES: 0
L2C PREFETCHES SAME FILL-ORIGIN LEVEL: 3767 DIFFERENT FILL-ORIGIN LEVEL: 0
L2C AVERAGE MISS LATENCY: 170.389 cycles
L2C RQ	ACCESS:     411806	FORWARD:          0	MERGED:          0	TO_CACHE:     411806
L2C WQ	ACCESS:      80634	FORWARD:          0	MERGED:          0	TO_CACHE:      80634
L2C PQ	ACCESS:      32697	FORWARD:          0	MERGED:          0	TO_CACHE:      32697

L2C Instructions Evicting Data 370
L2C Translations Evicting Data 22532
L2C Data Evicting Data 39748
L2C Instructions Evicting Instructions 2
L2C Translations Evicting Instructions 186
L2C Data Evicting Instructions 382
L2C Instructions Evicting Translations 208
L2C Translations Evicting Translations 12496
L2C Data Evicting Translations 22425
L2C Dense regions hint from L2: 0
PSCL5 TOTAL     ACCESS:      37346  HIT:      37346  MISS:          0  HIT %:        100  MISS %:          0   MPKI: 0
PSCL5 LOAD TRANSLATION ACCESS:      36420  HIT:      36420  MISS:          0  HIT %:        100  MISS %:          0   MPKI: 0
PSCL5 TRANSLATION FROM L1D PREFETCHER ACCESS:        926  HIT:        926  MISS:          0  HIT %:        100  MISS %:          0   MPKI: 0
PSCL5 PREFETCH  REQUESTED:          0  ISSUED:          0  USEFUL:          0  USELESS:          0
PSCL5 USEFUL LOAD PREFETCHES:          0 PREFETCH ISSUED TO LOWER LEVEL:          0  ACCURACY: -nan
PSCL5 TIMELY PREFETCHES:          0 LATE PREFETCHES: 0 DROPPED PREFETCHES: 0
PSCL5 PREFETCHES SAME FILL-ORIGIN LEVEL: 0 DIFFERENT FILL-ORIGIN LEVEL: 0

PSCL4 TOTAL     ACCESS:      37346  HIT:      37346  MISS:          0  HIT %:        100  MISS %:          0   MPKI: 0
PSCL4 LOAD TRANSLATION ACCESS:      36420  HIT:      36420  MISS:          0  HIT %:        100  MISS %:          0   MPKI: 0
PSCL4 TRANSLATION FROM L1D PREFETCHER ACCESS:        926  HIT:        926  MISS:          0  HIT %:        100  MISS %:          0   MPKI: 0
PSCL4 PREFETCH  REQUESTED:          0  ISSUED:          0  USEFUL:          0  USELESS:          0
PSCL4 USEFUL LOAD PREFETCHES:          0 PREFETCH ISSUED TO LOWER LEVEL:          0  ACCURACY: -nan
PSCL4 TIMELY PREFETCHES:          0 LATE PREFETCHES: 0 DROPPED PREFETCHES: 0
PSCL4 PREFETCHES SAME FILL-ORIGIN LEVEL: 0 DIFFERENT FILL-ORIGIN LEVEL: 0

PSCL3 TOTAL     ACCESS:      36529  HIT:      34570  MISS:       1959  HIT %:    94.6371  MISS %:    5.36286   MPKI: 0.009795
PSCL3 LOAD TRANSLATION ACCESS:      36356  HIT:      34397  MISS:       1959  HIT %:    94.6116  MISS %:    5.38838   MPKI: 0.009795
PSCL3 TRANSLATION FROM L1D PREFETCHER ACCESS:        173  HIT:        173  MISS:          0  HIT %:        100  MISS %:          0   MPKI: 0
PSCL3 PREFETCH  REQUESTED:          0  ISSUED:          0  USEFUL:          0  USELESS:          0
PSCL3 USEFUL LOAD PREFETCHES:          0 PREFETCH ISSUED TO LOWER LEVEL:          0  ACCURACY: -nan
PSCL3 TIMELY PREFETCHES:          0 LATE PREFETCHES: 0 DROPPED PREFETCHES: 0
PSCL3 PREFETCHES SAME FILL-ORIGIN LEVEL: 0 DIFFERENT FILL-ORIGIN LEVEL: 0

PSCL2 TOTAL     ACCESS:      36513  HIT:       1051  MISS:      35462  HIT %:    2.87843  MISS %:    97.1216   MPKI: 0.17731
PSCL2 LOAD TRANSLATION ACCESS:      36445  HIT:        983  MISS:      35462  HIT %:    2.69721  MISS %:    97.3028   MPKI: 0.17731
PSCL2 TRANSLATION FROM L1D PREFETCHER ACCESS:         68  HIT:         68  MISS:          0  HIT %:        100  MISS %:          0   MPKI: 0
PSCL2 PREFETCH  REQUESTED:          0  ISSUED:          0  USEFUL:          0  USELESS:          0
PSCL2 USEFUL LOAD PREFETCHES:          0 PREFETCH ISSUED TO LOWER LEVEL:          0  ACCURACY: -nan
PSCL2 TIMELY PREFETCHES:          0 LATE PREFETCHES: 0 DROPPED PREFETCHES: 0
PSCL2 PREFETCHES SAME FILL-ORIGIN LEVEL: 0 DIFFERENT FILL-ORIGIN LEVEL: 0

LLC TOTAL     ACCESS:     139985  HIT:      48204  MISS:      91781  HIT %:    34.4351  MISS %:    65.5649   MPKI: 0.458905
LLC LOAD      ACCESS:      57455  HIT:       2972  MISS:      54483  HIT %:    5.17274  MISS %:    94.8273   MPKI: 0.272415
LLC RFO       ACCESS:       1913  HIT:       1000  MISS:        913  HIT %:    52.2739  MISS %:    47.7261   MPKI: 0.004565
LLC PREFETCH  ACCESS:       3767  HIT:        556  MISS:       3211  HIT %:    14.7598  MISS %:    85.2402   MPKI: 0.016055
LLC WRITEBACK ACCESS:      41636  HIT:      40380  MISS:       1256  HIT %:    96.9834  MISS %:    3.01662   MPKI: 0.00628
LLC LOAD TRANSLATION ACCESS:      35189  HIT:       3278  MISS:      31911  HIT %:    9.31541  MISS %:    90.6846   MPKI: 0.159555
LLC TRANSLATION FROM L1D PREFETCHER ACCESS:         25  HIT:         18  MISS:          7  HIT %:         72  MISS %:         28   MPKI: 3.5e-05
LLC PREFETCH  REQUESTED:          0  ISSUED:          0  USEFUL:         33  USELESS:       1892
LLC USEFUL LOAD PREFETCHES:         33 PREFETCH ISSUED TO LOWER LEVEL:       3211  ACCURACY: 1.02772
LLC TIMELY PREFETCHES:         33 LATE PREFETCHES: 0 DROPPED PREFETCHES: 0
LLC PREFETCHES SAME FILL-ORIGIN LEVEL: 0 DIFFERENT FILL-ORIGIN LEVEL: 0
LLC AVERAGE MISS LATENCY: 151.946 cycles
LLC RQ	ACCESS:      94582	FORWARD:          0	MERGED:          0	TO_CACHE:      94582
LLC WQ	ACCESS:      41636	FORWARD:          0	MERGED:          0	TO_CACHE:      41636
LLC PQ	ACCESS:       3767	FORWARD:          0	MERGED:          0	TO_CACHE:       3767

LLC Dense regions hint to LLC: 0

RAW hits: 4119056
Loads Generated: 52720714
Loads sent to L1D: 48601658
Stores Generated: 23718033
Stores sent to L1D: 23718043
Major fault: 0 Minor fault: 44830
Allocated PAGES: 44830

DRAM Statistics
 CHANNEL 0
 RQ ROW_BUFFER_HIT:      14456  ROW_BUFFER_MISS:      76069
 DBUS_CONGESTED:          0
 WQ ROW_BUFFER_HIT:       9077  ROW_BUFFER_MISS:      24680  FULL:          0

 AVG_CONGESTED_CYCLE: -
 All warmup complete: 2
Channel 0 Bank busy for read cycles: 0
Channel 0 Bank busy for write cycles: 0
Channel 0
Rank 0
0banks busy for read cycles: 389695457
0banks busy for write cycles: 25640
1banks busy for read cycles: 8617833
1banks busy for write cycles: 4607590
2banks busy for read cycles: 1667793
2banks busy for write cycles: 559471
3banks busy for read cycles: 59233
3banks busy for write cycles: 33081
4banks busy for read cycles: 508
4banks busy for write cycles: 742
5banks busy for read cycles: 0
5banks busy for write cycles: 131
6banks busy for read cycles: 0
6banks busy for write cycles: 0
7banks busy for read cycles: 0
7banks busy for write cycles: 0
8banks busy for read cycles: 0
8banks busy for write cycles: 0

CPU 0 Branch Prediction Accuracy: 95.1436% MPKI: 4.72062 Average ROB Occupancy at Mispredict: 42.5216
Branch types
NOT_BRANCH: 170579579 85.2898%
BRANCH_DIRECT_JUMP: 1701453 0.850727%
BRANCH_INDIRECT: 162268 0.081134%
BRANCH_CONDITIONAL: 19440746 9.72037%
BRANCH_DIRECT_CALL: 4057818 2.02891%
BRANCH_INDIRECT_CALL: 0 0%
BRANCH_RETURN: 4057815 2.02891%
BRANCH_OTHER: 0 0%

DRAM PAGES: 1048576
Allocated PAGES: 44830
