
*** ChampSim Multicore Out-of-Order Simulator ***

Warmup Instructions: 50000000
Simulation Instructions: 200000000
Number of CPUs: 1
LLC sets: 2048
LLC ways: 16
Off-chip DRAM Size: 4096 MB Channels: 1 Width: 64-bit Data Rate: 6400 MT/s
argv[0]: ./ChampSim/Berti/bin/multiperspective_perceptron8kb-no-vberti-no-no-no-no-no-lru-lru-lru-srrip-drrip-lru-lru-lru-1core-no
argv[1]: -warmup_instructions
argv[2]: 50000000
argv[3]: -simulation_instructions
argv[4]: 200000000
argv[5]: -traces
argv[6]: traces/spec2k17_ten/628.pop2_s-17B.champsimtrace.xz
CPU 0 runs traces/spec2k17_ten/628.pop2_s-17B.champsimtrace.xz
.xz
CPU 0 Multiperspective perceptron branch predictor
BTB has LRU replacement policy
ITLB has LRU replacement policy
DTLB has LRU replacement policy
STLB has LRU replacement policy
L1I has LRU replacement policy
History Sets: 8
History Ways: 16
BERTI Size: 16
BERTI Stride Size: 16
L1D has LRU replacement policy
Initialize SRRIP state for L2C
Initialize DRRIP state for LLC
Heartbeat CPU 0 instructions: 10000003 cycles: 2993852 heartbeat IPC: 3.34018 cumulative IPC: 3.34018 (Simulation time: 0 hr 3 min 26 sec) 
Heartbeat CPU 0 instructions: 20000001 cycles: 5987801 heartbeat IPC: 3.34007 cumulative IPC: 3.34012 (Simulation time: 0 hr 11 min 50 sec) 
Heartbeat CPU 0 instructions: 30000003 cycles: 8981532 heartbeat IPC: 3.34031 cumulative IPC: 3.34019 (Simulation time: 0 hr 18 min 43 sec) 
Heartbeat CPU 0 instructions: 40000003 cycles: 11975129 heartbeat IPC: 3.34046 cumulative IPC: 3.34026 (Simulation time: 0 hr 25 min 16 sec) 
Heartbeat CPU 0 instructions: 50000002 cycles: 14970747 heartbeat IPC: 3.33821 cumulative IPC: 3.33985 (Simulation time: 0 hr 29 min 53 sec) 

Warmup complete CPU 0 instructions: 50000002 cycles: 14970747 (Simulation time: 0 hr 29 min 53 sec) 

Heartbeat CPU 0 instructions: 60000001 cycles: 27077668 heartbeat IPC: 0.825974 cumulative IPC: 0.825974 (Simulation time: 0 hr 37 min 53 sec) 
Heartbeat CPU 0 instructions: 70000002 cycles: 39046392 heartbeat IPC: 0.835511 cumulative IPC: 0.830715 (Simulation time: 0 hr 45 min 17 sec) 
Heartbeat CPU 0 instructions: 80000000 cycles: 50817174 heartbeat IPC: 0.849561 cumulative IPC: 0.836903 (Simulation time: 0 hr 51 min 21 sec) 
Heartbeat CPU 0 instructions: 90000003 cycles: 64424380 heartbeat IPC: 0.734905 cumulative IPC: 0.808838 (Simulation time: 0 hr 58 min 1 sec) 
Heartbeat CPU 0 instructions: 100000001 cycles: 75934071 heartbeat IPC: 0.868833 cumulative IPC: 0.820165 (Simulation time: 1 hr 5 min 37 sec) 
Heartbeat CPU 0 instructions: 110000000 cycles: 88272341 heartbeat IPC: 0.810486 cumulative IPC: 0.818536 (Simulation time: 1 hr 13 min 14 sec) 
Heartbeat CPU 0 instructions: 120000000 cycles: 101170163 heartbeat IPC: 0.775325 cumulative IPC: 0.81207 (Simulation time: 1 hr 16 min 53 sec) 
Heartbeat CPU 0 instructions: 130000000 cycles: 114399680 heartbeat IPC: 0.755885 cumulative IPC: 0.804595 (Simulation time: 1 hr 22 min 13 sec) 
Heartbeat CPU 0 instructions: 140000002 cycles: 128538586 heartbeat IPC: 0.707268 cumulative IPC: 0.792478 (Simulation time: 1 hr 29 min 21 sec) 
Heartbeat CPU 0 instructions: 150000000 cycles: 141524598 heartbeat IPC: 0.770059 cumulative IPC: 0.790177 (Simulation time: 1 hr 33 min 3 sec) 
Heartbeat CPU 0 instructions: 160000000 cycles: 155631782 heartbeat IPC: 0.708859 cumulative IPC: 0.782022 (Simulation time: 1 hr 38 min 30 sec) 
Heartbeat CPU 0 instructions: 170000002 cycles: 166420357 heartbeat IPC: 0.926907 cumulative IPC: 0.792343 (Simulation time: 1 hr 42 min 48 sec) 
Heartbeat CPU 0 instructions: 180000003 cycles: 178098668 heartbeat IPC: 0.856288 cumulative IPC: 0.796921 (Simulation time: 1 hr 48 min 23 sec) 
Heartbeat CPU 0 instructions: 190000003 cycles: 190256195 heartbeat IPC: 0.822536 cumulative IPC: 0.798697 (Simulation time: 1 hr 53 min 21 sec) 
Heartbeat CPU 0 instructions: 200000000 cycles: 202326539 heartbeat IPC: 0.828477 cumulative IPC: 0.800616 (Simulation time: 1 hr 59 min 56 sec) 
Heartbeat CPU 0 instructions: 210000000 cycles: 214379531 heartbeat IPC: 0.82967 cumulative IPC: 0.802372 (Simulation time: 2 hr 6 min 28 sec) 
Heartbeat CPU 0 instructions: 220000000 cycles: 226443503 heartbeat IPC: 0.828914 cumulative IPC: 0.803886 (Simulation time: 2 hr 13 min 4 sec) 
Heartbeat CPU 0 instructions: 230000000 cycles: 238563200 heartbeat IPC: 0.825103 cumulative IPC: 0.805036 (Simulation time: 2 hr 20 min 32 sec) 
Heartbeat CPU 0 instructions: 240000002 cycles: 250673567 heartbeat IPC: 0.825739 cumulative IPC: 0.8061 (Simulation time: 2 hr 29 min 23 sec) 
Heartbeat CPU 0 instructions: 250000002 cycles: 262752499 heartbeat IPC: 0.827888 cumulative IPC: 0.807162 (Simulation time: 2 hr 35 min 54 sec) 
Finished CPU 0 instructions: 200000000 cycles: 247781752 cumulative IPC: 0.807162 (Simulation time: 2 hr 35 min 54 sec) 

ChampSim completed all CPUs

Region of Interest Statistics

CPU 0 cumulative IPC: 0.807162 instructions: 200000000 cycles: 247781752
ITLB TOTAL     ACCESS:   34530886  HIT:   34524717  MISS:       6169  HIT %:    99.9821  MISS %:  0.0178652   MPKI: 0.030845
ITLB LOAD TRANSLATION ACCESS:   34530886  HIT:   34524717  MISS:       6169  HIT %:    99.9821  MISS %:  0.0178652   MPKI: 0.030845
ITLB PREFETCH  REQUESTED:          0  ISSUED:          0  USEFUL:          0  USELESS:          0
ITLB USEFUL LOAD PREFETCHES:          0 PREFETCH ISSUED TO LOWER LEVEL:          0  ACCURACY: -nan
ITLB TIMELY PREFETCHES:          0 LATE PREFETCHES: 0 DROPPED PREFETCHES: 0
ITLB PREFETCHES SAME FILL-ORIGIN LEVEL: 0 DIFFERENT FILL-ORIGIN LEVEL: 0
ITLB AVERAGE MISS LATENCY: 13.5181 cycles
ITLB RQ	ACCESS:   39301307	FORWARD:          0	MERGED:    4768867	TO_CACHE:   34532440

DTLB TOTAL     ACCESS:   38178025  HIT:   38077966  MISS:     100059  HIT %:    99.7379  MISS %:   0.262085   MPKI: 0.500295
DTLB LOAD TRANSLATION ACCESS:   38178025  HIT:   38077966  MISS:     100059  HIT %:    99.7379  MISS %:   0.262085   MPKI: 0.500295
DTLB PREFETCH  REQUESTED:          0  ISSUED:          0  USEFUL:          0  USELESS:          0
DTLB USEFUL LOAD PREFETCHES:          0 PREFETCH ISSUED TO LOWER LEVEL:          0  ACCURACY: -nan
DTLB TIMELY PREFETCHES:          0 LATE PREFETCHES: 0 DROPPED PREFETCHES: 0
DTLB PREFETCHES SAME FILL-ORIGIN LEVEL: 0 DIFFERENT FILL-ORIGIN LEVEL: 0
DTLB AVERAGE MISS LATENCY: 21.4762 cycles
DTLB RQ	ACCESS:   41931628	FORWARD:          0	MERGED:    3724868	TO_CACHE:   38206760

STLB TOTAL     ACCESS:    7630484  HIT:    7620779  MISS:       9705  HIT %:    99.8728  MISS %:   0.127187   MPKI: 0.048525
STLB LOAD TRANSLATION ACCESS:     106228  HIT:      98169  MISS:       8059  HIT %:    92.4135  MISS %:    7.58651   MPKI: 0.040295
STLB TRANSLATION FROM L1D PREFETCHER ACCESS:    7524256  HIT:    7522610  MISS:       1646  HIT %:    99.9781  MISS %:  0.0218759   MPKI: 0.00823
STLB PREFETCH  REQUESTED:          0  ISSUED:          0  USEFUL:       1643  USELESS:          1
STLB USEFUL LOAD PREFETCHES:       1643 PREFETCH ISSUED TO LOWER LEVEL:          0  ACCURACY: inf
STLB TIMELY PREFETCHES:       1643 LATE PREFETCHES: 732 DROPPED PREFETCHES: 85954
STLB PREFETCHES SAME FILL-ORIGIN LEVEL: 0 DIFFERENT FILL-ORIGIN LEVEL: 0
STLB AVERAGE MISS LATENCY: 144.143 cycles
STLB RQ	ACCESS:   39114115	FORWARD:          0	MERGED:   31384892	TO_CACHE:    7729223

STLB Hit, L1D data hit: 0
STLB Hit, L2C data hit: 0
STLB Hit, LLC data hit: 0
STLB Hit, LLC data miss: 0
STLB STLB hints to L2: 0
L1D TOTAL     ACCESS:   70460073  HIT:   67301153  MISS:    3158920  HIT %:    95.5167  MISS %:    4.48328   MPKI: 15.7946
L1D LOAD      ACCESS:   28265779  HIT:   27490911  MISS:     774868  HIT %:    97.2586  MISS %:    2.74136   MPKI: 3.87434
L1D RFO       ACCESS:   11461796  HIT:   10454028  MISS:    1007768  HIT %:    91.2076  MISS %:    8.79241   MPKI: 5.03884
L1D PREFETCH  ACCESS:   30732498  HIT:   29356214  MISS:    1376284  HIT %:    95.5217  MISS %:    4.47827   MPKI: 6.88142
L1D PREFETCH  REQUESTED:   91795920  ISSUED:   82126682  USEFUL:    1191340  USELESS:     184920
L1D USEFUL LOAD PREFETCHES:    1191340 PREFETCH ISSUED TO LOWER LEVEL:    8833865  ACCURACY: 13.4861
L1D TIMELY PREFETCHES:    1191340 LATE PREFETCHES: 19005 DROPPED PREFETCHES: 228233
L1D PREFETCHES SAME FILL-ORIGIN LEVEL: 1395290 DIFFERENT FILL-ORIGIN LEVEL: 7438575
L1D AVERAGE MISS LATENCY: 51.6797 cycles
L1D RQ	ACCESS:   39800553	FORWARD:          0	MERGED:   11066434	TO_CACHE:   28549539
L1D WQ	ACCESS:   13600317	FORWARD:     184702	MERGED:     218228	TO_CACHE:   13382089
L1D PQ	ACCESS:   43118795	FORWARD:          0	MERGED:    4110786	TO_CACHE:   39007887

L1D UNIQUE REGIONS ACCESSED: 0
L1D REGIONS CONFLICTS: 0
L1D Cross Page Prefetch Requests: 4560658
L1D Same Page Prefetch Requests: 53592044
L1D ROI Sum of L1D PQ occupancy: 596831428
L1D PREFETCHES PUSHED FROM L2C: 0
L1I TOTAL     ACCESS:   39254496  HIT:   39139692  MISS:     114804  HIT %:    99.7075  MISS %:   0.292461   MPKI: 0.57402
L1I LOAD      ACCESS:   39254496  HIT:   39139692  MISS:     114804  HIT %:    99.7075  MISS %:   0.292461   MPKI: 0.57402
L1I PREFETCH  REQUESTED:          0  ISSUED:          0  USEFUL:          0  USELESS:          0
L1I USEFUL LOAD PREFETCHES:          0 PREFETCH ISSUED TO LOWER LEVEL:          0  ACCURACY: -nan
L1I TIMELY PREFETCHES:          0 LATE PREFETCHES: 0 DROPPED PREFETCHES: 0
L1I PREFETCHES SAME FILL-ORIGIN LEVEL: 0 DIFFERENT FILL-ORIGIN LEVEL: 0
L1I AVERAGE MISS LATENCY: 50.9334 cycles
L1I RQ	ACCESS:   59684351	FORWARD:          0	MERGED:   20383044	TO_CACHE:   39301307

BTB TOTAL     ACCESS:   29674719  HIT:   29620844  MISS:      53875  HIT %:    99.8184  MISS %:   0.181552   MPKI: 0.269375
BTB BRANCH_DIRECT_JUMP	ACCESS:     633395  HIT:     632983  MISS:        412
BTB BRANCH_INDIRECT	ACCESS:       8917  HIT:       8176  MISS:        741
BTB BRANCH_CONDITIONAL	ACCESS:   27681845  HIT:   27678195  MISS:       3650
BTB BRANCH_DIRECT_CALL	ACCESS:     675281  HIT:     673574  MISS:       1707
BTB BRANCH_INDIRECT_CALL	ACCESS:          0  HIT:          0  MISS:          0
BTB BRANCH_RETURN	ACCESS:     675281  HIT:     627916  MISS:      47365
BTB BRANCH_OTHER ACCESS:          0  HIT:          0  MISS:          0

L2C TOTAL     ACCESS:   11460028  HIT:   10031278  MISS:    1428750  HIT %:    87.5328  MISS %:    12.4672   MPKI: 7.14375
L2C LOAD      ACCESS:     870634  HIT:     537983  MISS:     332651  HIT %:    61.7921  MISS %:    38.2079   MPKI: 1.66325
L2C DATA LOAD MPKI: 1.09922
L2C INSTRUCTION LOAD MPKI: 0.564035
L2C RFO       ACCESS:    1007715  HIT:     633446  MISS:     374269  HIT %:    62.8596  MISS %:    37.1404   MPKI: 1.87135
L2C PREFETCH  ACCESS:    8126824  HIT:    7428131  MISS:     698693  HIT %:    91.4026  MISS %:    8.59737   MPKI: 3.49347
L2C DATA PREFETCH MPKI: 3.49347
L2C INSTRUCTION PREFETCH MPKI: 0
L2C WRITEBACK ACCESS:    1326200  HIT:    1310930  MISS:      15270  HIT %:    98.8486  MISS %:    1.15141   MPKI: 0.07635
L2C LOAD TRANSLATION ACCESS:       9496  HIT:       6517  MISS:       2979  HIT %:    68.6289  MISS %:    31.3711   MPKI: 0.014895
L2C TRANSLATION FROM L1D PREFETCHER ACCESS:     119159  HIT:     114271  MISS:       4888  HIT %:    95.8979  MISS %:    4.10208   MPKI: 0.02444
L2C PREFETCH  REQUESTED:          0  ISSUED:          0  USEFUL:     167290  USELESS:     537127
L2C USEFUL LOAD PREFETCHES:     167290 PREFETCH ISSUED TO LOWER LEVEL:     716075  ACCURACY: 23.3621
L2C TIMELY PREFETCHES:     167290 LATE PREFETCHES: 17382 DROPPED PREFETCHES: 0
L2C PREFETCHES SAME FILL-ORIGIN LEVEL: 445386 DIFFERENT FILL-ORIGIN LEVEL: 0
L2C AVERAGE MISS LATENCY: 120.711 cycles
L2C RQ	ACCESS:    2007089	FORWARD:          0	MERGED:          0	TO_CACHE:    2007004
L2C WQ	ACCESS:    1326200	FORWARD:        140	MERGED:          0	TO_CACHE:    1326200
L2C PQ	ACCESS:    8833416	FORWARD:          0	MERGED:        963	TO_CACHE:    8832398

L2C Instructions Evicting Data 101005
L2C Translations Evicting Data 7002
L2C Data Evicting Data 1185051
L2C Instructions Evicting Instructions 11051
L2C Translations Evicting Instructions 811
L2C Data Evicting Instructions 100761
L2C Instructions Evicting Translations 751
L2C Translations Evicting Translations 54
L2C Data Evicting Translations 6994
L2C Dense regions hint from L2: 0
PSCL5 TOTAL     ACCESS:      96359  HIT:      96359  MISS:          0  HIT %:        100  MISS %:          0   MPKI: 0
PSCL5 LOAD TRANSLATION ACCESS:       8027  HIT:       8027  MISS:          0  HIT %:        100  MISS %:          0   MPKI: 0
PSCL5 TRANSLATION FROM L1D PREFETCHER ACCESS:      88332  HIT:      88332  MISS:          0  HIT %:        100  MISS %:          0   MPKI: 0
PSCL5 PREFETCH  REQUESTED:          0  ISSUED:          0  USEFUL:          0  USELESS:          0
PSCL5 USEFUL LOAD PREFETCHES:          0 PREFETCH ISSUED TO LOWER LEVEL:          0  ACCURACY: -nan
PSCL5 TIMELY PREFETCHES:          0 LATE PREFETCHES: 0 DROPPED PREFETCHES: 0
PSCL5 PREFETCHES SAME FILL-ORIGIN LEVEL: 0 DIFFERENT FILL-ORIGIN LEVEL: 0

PSCL4 TOTAL     ACCESS:      96359  HIT:      96359  MISS:          0  HIT %:        100  MISS %:          0   MPKI: 0
PSCL4 LOAD TRANSLATION ACCESS:       8027  HIT:       8027  MISS:          0  HIT %:        100  MISS %:          0   MPKI: 0
PSCL4 TRANSLATION FROM L1D PREFETCHER ACCESS:      88332  HIT:      88332  MISS:          0  HIT %:        100  MISS %:          0   MPKI: 0
PSCL4 PREFETCH  REQUESTED:          0  ISSUED:          0  USEFUL:          0  USELESS:          0
PSCL4 USEFUL LOAD PREFETCHES:          0 PREFETCH ISSUED TO LOWER LEVEL:          0  ACCURACY: -nan
PSCL4 TIMELY PREFETCHES:          0 LATE PREFETCHES: 0 DROPPED PREFETCHES: 0
PSCL4 PREFETCHES SAME FILL-ORIGIN LEVEL: 0 DIFFERENT FILL-ORIGIN LEVEL: 0

PSCL3 TOTAL     ACCESS:      96359  HIT:      96359  MISS:          0  HIT %:        100  MISS %:          0   MPKI: 0
PSCL3 LOAD TRANSLATION ACCESS:       8027  HIT:       8027  MISS:          0  HIT %:        100  MISS %:          0   MPKI: 0
PSCL3 TRANSLATION FROM L1D PREFETCHER ACCESS:      88332  HIT:      88332  MISS:          0  HIT %:        100  MISS %:          0   MPKI: 0
PSCL3 PREFETCH  REQUESTED:          0  ISSUED:          0  USEFUL:          0  USELESS:          0
PSCL3 USEFUL LOAD PREFETCHES:          0 PREFETCH ISSUED TO LOWER LEVEL:          0  ACCURACY: -nan
PSCL3 TIMELY PREFETCHES:          0 LATE PREFETCHES: 0 DROPPED PREFETCHES: 0
PSCL3 PREFETCHES SAME FILL-ORIGIN LEVEL: 0 DIFFERENT FILL-ORIGIN LEVEL: 0

PSCL2 TOTAL     ACCESS:      65698  HIT:      63928  MISS:       1770  HIT %:    97.3059  MISS %:    2.69415   MPKI: 0.00885
PSCL2 LOAD TRANSLATION ACCESS:       8282  HIT:       6512  MISS:       1770  HIT %:    78.6284  MISS %:    21.3716   MPKI: 0.00885
PSCL2 TRANSLATION FROM L1D PREFETCHER ACCESS:      57416  HIT:      57416  MISS:          0  HIT %:        100  MISS %:          0   MPKI: 0
PSCL2 PREFETCH  REQUESTED:          0  ISSUED:          0  USEFUL:          0  USELESS:          0
PSCL2 USEFUL LOAD PREFETCHES:          0 PREFETCH ISSUED TO LOWER LEVEL:          0  ACCURACY: -nan
PSCL2 TIMELY PREFETCHES:          0 LATE PREFETCHES: 0 DROPPED PREFETCHES: 0
PSCL2 PREFETCHES SAME FILL-ORIGIN LEVEL: 0 DIFFERENT FILL-ORIGIN LEVEL: 0

LLC TOTAL     ACCESS:    1975293  HIT:    1264871  MISS:     710422  HIT %:    64.0346  MISS %:    35.9654   MPKI: 3.55211
LLC LOAD      ACCESS:     315271  HIT:     245785  MISS:      69486  HIT %:    77.9599  MISS %:    22.0401   MPKI: 0.34743
LLC RFO       ACCESS:     374264  HIT:     147354  MISS:     226910  HIT %:    39.3717  MISS %:    60.6283   MPKI: 1.13455
LLC PREFETCH  ACCESS:     716075  HIT:     315944  MISS:     400131  HIT %:    44.1216  MISS %:    55.8784   MPKI: 2.00066
LLC WRITEBACK ACCESS:     561816  HIT:     549952  MISS:      11864  HIT %:    97.8883  MISS %:    2.11172   MPKI: 0.05932
LLC LOAD TRANSLATION ACCESS:       2979  HIT:       1694  MISS:       1285  HIT %:    56.8647  MISS %:    43.1353   MPKI: 0.006425
LLC TRANSLATION FROM L1D PREFETCHER ACCESS:       4888  HIT:       4142  MISS:        746  HIT %:    84.7381  MISS %:    15.2619   MPKI: 0.00373
LLC PREFETCH  REQUESTED:          0  ISSUED:          0  USEFUL:      23961  USELESS:     379138
LLC USEFUL LOAD PREFETCHES:      23961 PREFETCH ISSUED TO LOWER LEVEL:     400131  ACCURACY: 5.98829
LLC TIMELY PREFETCHES:      23961 LATE PREFETCHES: 0 DROPPED PREFETCHES: 0
LLC PREFETCHES SAME FILL-ORIGIN LEVEL: 0 DIFFERENT FILL-ORIGIN LEVEL: 0
LLC AVERAGE MISS LATENCY: 183.937 cycles
LLC RQ	ACCESS:     697405	FORWARD:          0	MERGED:          0	TO_CACHE:     697402
LLC WQ	ACCESS:     561816	FORWARD:          3	MERGED:          0	TO_CACHE:     561816
LLC PQ	ACCESS:     716075	FORWARD:          0	MERGED:          0	TO_CACHE:     716075

LLC Dense regions hint to LLC: 0

RAW hits: 693988
Loads Generated: 40494544
Loads sent to L1D: 39800553
Stores Generated: 13600306
Stores sent to L1D: 13600317
Major fault: 0 Minor fault: 9397
Allocated PAGES: 9397

DRAM Statistics
 CHANNEL 0
 RQ ROW_BUFFER_HIT:     250610  ROW_BUFFER_MISS:     447888
 DBUS_CONGESTED:       2518
 WQ ROW_BUFFER_HIT:      71502  ROW_BUFFER_MISS:     262426  FULL:          0

 AVG_CONGESTED_CYCLE: 5
 All warmup complete: 2
Channel 0 Bank busy for read cycles: 0
Channel 0 Bank busy for write cycles: 0
Channel 0
Rank 0
0banks busy for read cycles: 195258259
0banks busy for write cycles: 32884
1banks busy for read cycles: 17270961
1banks busy for write cycles: 4206084
2banks busy for read cycles: 10165804
2banks busy for write cycles: 2168559
3banks busy for read cycles: 3772235
3banks busy for write cycles: 1361107
4banks busy for read cycles: 2110821
4banks busy for write cycles: 994569
5banks busy for read cycles: 1096876
5banks busy for write cycles: 807271
6banks busy for read cycles: 826261
6banks busy for write cycles: 720179
7banks busy for read cycles: 635985
7banks busy for write cycles: 966221
8banks busy for read cycles: 1059100
8banks busy for write cycles: 4328577

CPU 0 Branch Prediction Accuracy: 99.2674% MPKI: 1.04392 Average ROB Occupancy at Mispredict: 27.5546
Branch types
NOT_BRANCH: 169508351 84.7542%
BRANCH_DIRECT_JUMP: 633395 0.316698%
BRANCH_INDIRECT: 8917 0.0044585%
BRANCH_CONDITIONAL: 28498608 14.2493%
BRANCH_DIRECT_CALL: 675281 0.337641%
BRANCH_INDIRECT_CALL: 0 0%
BRANCH_RETURN: 675281 0.337641%
BRANCH_OTHER: 0 0%

DRAM PAGES: 1048576
Allocated PAGES: 9397
