526208 bits of metadata so far, 405638 left out of 526336 total budget
table size is 13521 bits, 2253 entries for 5 bit, 1931 entries for 6 bit
526208 total bits (64.23KB)

*** ChampSim Multicore Out-of-Order Simulator ***

Warmup Instructions: 50000000
Simulation Instructions: 200000000
Number of CPUs: 1
LLC sets: 2048
LLC ways: 16
Off-chip DRAM Size: 4096 MB Channels: 1 Width: 64-bit Data Rate: 6400 MT/s
argv[0]: ./ChampSim/Berti/bin/multiperspective_perceptron-no-vberti-no-no-no-no-no-lru-lru-lru-srrip-drrip-lru-lru-lru-1core-no
argv[1]: -warmup_instructions
argv[2]: 50000000
argv[3]: -simulation_instructions
argv[4]: 200000000
argv[5]: -traces
argv[6]: traces/spec2k17_ten/607.cactuBSSN_s-2421B.champsimtrace.xz
CPU 0 runs traces/spec2k17_ten/607.cactuBSSN_s-2421B.champsimtrace.xz
.xz
CPU 0 Multiperspective perceptron branch predictor
BTB has LRU replacement policy
ITLB has LRU replacement policy
DTLB has LRU replacement policy
STLB has LRU replacement policy
L1I has LRU replacement policy
History Sets: 8
History Ways: 16
BERTI Size: 16
BERTI Stride Size: 16
L1D has LRU replacement policy
Initialize SRRIP state for L2C
Initialize DRRIP state for LLC
Heartbeat CPU 0 instructions: 10000002 cycles: 3587638 heartbeat IPC: 2.78735 cumulative IPC: 2.78735 (Simulation time: 0 hr 3 min 24 sec) 
Heartbeat CPU 0 instructions: 20000001 cycles: 7171596 heartbeat IPC: 2.79021 cumulative IPC: 2.78878 (Simulation time: 0 hr 4 min 46 sec) 
Heartbeat CPU 0 instructions: 30000002 cycles: 10758930 heartbeat IPC: 2.78759 cumulative IPC: 2.78838 (Simulation time: 0 hr 6 min 4 sec) 
Heartbeat CPU 0 instructions: 40000003 cycles: 14345605 heartbeat IPC: 2.7881 cumulative IPC: 2.78831 (Simulation time: 0 hr 7 min 37 sec) 
Heartbeat CPU 0 instructions: 50000003 cycles: 17931136 heartbeat IPC: 2.78899 cumulative IPC: 2.78845 (Simulation time: 0 hr 9 min 5 sec) 

Warmup complete CPU 0 instructions: 50000003 cycles: 17931136 (Simulation time: 0 hr 9 min 5 sec) 

Heartbeat CPU 0 instructions: 60000003 cycles: 30722617 heartbeat IPC: 0.78177 cumulative IPC: 0.78177 (Simulation time: 0 hr 11 min 16 sec) 
Heartbeat CPU 0 instructions: 70000000 cycles: 43248466 heartbeat IPC: 0.798349 cumulative IPC: 0.789973 (Simulation time: 0 hr 13 min 58 sec) 
Heartbeat CPU 0 instructions: 80000001 cycles: 55808760 heartbeat IPC: 0.79616 cumulative IPC: 0.792024 (Simulation time: 0 hr 16 min 7 sec) 
Heartbeat CPU 0 instructions: 90000000 cycles: 68356454 heartbeat IPC: 0.796959 cumulative IPC: 0.793252 (Simulation time: 0 hr 21 min 14 sec) 
Heartbeat CPU 0 instructions: 100000000 cycles: 80877587 heartbeat IPC: 0.79865 cumulative IPC: 0.794326 (Simulation time: 0 hr 26 min 7 sec) 
Heartbeat CPU 0 instructions: 110000000 cycles: 93390981 heartbeat IPC: 0.799144 cumulative IPC: 0.795125 (Simulation time: 0 hr 30 min 51 sec) 
Heartbeat CPU 0 instructions: 120000000 cycles: 105879421 heartbeat IPC: 0.800741 cumulative IPC: 0.795922 (Simulation time: 0 hr 35 min 47 sec) 
Heartbeat CPU 0 instructions: 130000002 cycles: 118437103 heartbeat IPC: 0.796325 cumulative IPC: 0.795973 (Simulation time: 0 hr 40 min 29 sec) 
Heartbeat CPU 0 instructions: 140000002 cycles: 131003814 heartbeat IPC: 0.795753 cumulative IPC: 0.795948 (Simulation time: 0 hr 45 min 24 sec) 
Heartbeat CPU 0 instructions: 150000001 cycles: 143626786 heartbeat IPC: 0.792206 cumulative IPC: 0.795572 (Simulation time: 0 hr 50 min 20 sec) 
Heartbeat CPU 0 instructions: 160000002 cycles: 156120983 heartbeat IPC: 0.800372 cumulative IPC: 0.796006 (Simulation time: 0 hr 53 min 24 sec) 
Heartbeat CPU 0 instructions: 170000002 cycles: 168647645 heartbeat IPC: 0.798297 cumulative IPC: 0.796197 (Simulation time: 0 hr 58 min 14 sec) 
Heartbeat CPU 0 instructions: 180000001 cycles: 181119799 heartbeat IPC: 0.801786 cumulative IPC: 0.796624 (Simulation time: 1 hr 3 min 34 sec) 
Heartbeat CPU 0 instructions: 190000000 cycles: 193644195 heartbeat IPC: 0.798442 cumulative IPC: 0.796754 (Simulation time: 1 hr 8 min 20 sec) 
Heartbeat CPU 0 instructions: 200000000 cycles: 206111939 heartbeat IPC: 0.80207 cumulative IPC: 0.797106 (Simulation time: 1 hr 13 min 9 sec) 
Heartbeat CPU 0 instructions: 210000003 cycles: 218571495 heartbeat IPC: 0.802597 cumulative IPC: 0.797447 (Simulation time: 1 hr 18 min 8 sec) 
Heartbeat CPU 0 instructions: 220000000 cycles: 231124858 heartbeat IPC: 0.796599 cumulative IPC: 0.797397 (Simulation time: 1 hr 22 min 25 sec) 
Heartbeat CPU 0 instructions: 230000003 cycles: 243602293 heartbeat IPC: 0.801447 cumulative IPC: 0.797621 (Simulation time: 1 hr 26 min 24 sec) 
Heartbeat CPU 0 instructions: 240000000 cycles: 256206607 heartbeat IPC: 0.793379 cumulative IPC: 0.797396 (Simulation time: 1 hr 30 min 0 sec) 
Heartbeat CPU 0 instructions: 250000002 cycles: 268689576 heartbeat IPC: 0.801092 cumulative IPC: 0.79758 (Simulation time: 1 hr 32 min 55 sec) 
Finished CPU 0 instructions: 200000003 cycles: 250758441 cumulative IPC: 0.79758 (Simulation time: 1 hr 32 min 55 sec) 

ChampSim completed all CPUs

Region of Interest Statistics

CPU 0 cumulative IPC: 0.79758 instructions: 200000003 cycles: 250758441
ITLB TOTAL     ACCESS:   26749309  HIT:   26749255  MISS:         54  HIT %:    99.9998  MISS %: 0.000201874   MPKI: 0.00027
ITLB LOAD TRANSLATION ACCESS:   26749309  HIT:   26749255  MISS:         54  HIT %:    99.9998  MISS %: 0.000201874   MPKI: 0.00027
ITLB PREFETCH  REQUESTED:          0  ISSUED:          0  USEFUL:          0  USELESS:          0
ITLB USEFUL LOAD PREFETCHES:          0 PREFETCH ISSUED TO LOWER LEVEL:          0  ACCURACY: -nan
ITLB TIMELY PREFETCHES:          0 LATE PREFETCHES: 0 DROPPED PREFETCHES: 0
ITLB PREFETCHES SAME FILL-ORIGIN LEVEL: 0 DIFFERENT FILL-ORIGIN LEVEL: 0
ITLB AVERAGE MISS LATENCY: 331.519 cycles
ITLB RQ	ACCESS:   35011506	FORWARD:          0	MERGED:    8262187	TO_CACHE:   26749319

DTLB TOTAL     ACCESS:   41818444  HIT:   26812072  MISS:   15006372  HIT %:    64.1154  MISS %:    35.8846   MPKI: 75.0319
DTLB LOAD TRANSLATION ACCESS:   41818444  HIT:   26812072  MISS:   15006372  HIT %:    64.1154  MISS %:    35.8846   MPKI: 75.0319
DTLB PREFETCH  REQUESTED:          0  ISSUED:          0  USEFUL:          0  USELESS:          0
DTLB USEFUL LOAD PREFETCHES:          0 PREFETCH ISSUED TO LOWER LEVEL:          0  ACCURACY: -nan
DTLB TIMELY PREFETCHES:          0 LATE PREFETCHES: 0 DROPPED PREFETCHES: 0
DTLB PREFETCHES SAME FILL-ORIGIN LEVEL: 0 DIFFERENT FILL-ORIGIN LEVEL: 0
DTLB AVERAGE MISS LATENCY: 9.94949 cycles
DTLB RQ	ACCESS:   58239369	FORWARD:          0	MERGED:   15363050	TO_CACHE:   42876319

STLB TOTAL     ACCESS:   15037400  HIT:   15012851  MISS:      24549  HIT %:    99.8367  MISS %:   0.163253   MPKI: 0.122745
STLB LOAD TRANSLATION ACCESS:   15006427  HIT:   14981878  MISS:      24549  HIT %:    99.8364  MISS %:    0.16359   MPKI: 0.122745
STLB TRANSLATION FROM L1D PREFETCHER ACCESS:      30973  HIT:      30973  MISS:          0  HIT %:        100  MISS %:          0   MPKI: 0
STLB PREFETCH  REQUESTED:          0  ISSUED:          0  USEFUL:          0  USELESS:          0
STLB USEFUL LOAD PREFETCHES:          0 PREFETCH ISSUED TO LOWER LEVEL:          0  ACCURACY: -nan
STLB TIMELY PREFETCHES:          0 LATE PREFETCHES: 0 DROPPED PREFETCHES: 1231
STLB PREFETCHES SAME FILL-ORIGIN LEVEL: 0 DIFFERENT FILL-ORIGIN LEVEL: 0
STLB AVERAGE MISS LATENCY: 356.991 cycles
STLB RQ	ACCESS:   15045123	FORWARD:          0	MERGED:       6490	TO_CACHE:   15038633

STLB Hit, L1D data hit: 0
STLB Hit, L2C data hit: 0
STLB Hit, LLC data hit: 0
STLB Hit, LLC data miss: 0
STLB STLB hints to L2: 0
L1D TOTAL     ACCESS:   57608138  HIT:   34356971  MISS:   23251167  HIT %:    59.6391  MISS %:    40.3609   MPKI: 116.256
L1D LOAD      ACCESS:   34916142  HIT:   13278647  MISS:   21637495  HIT %:    38.0301  MISS %:    61.9699   MPKI: 108.187
L1D RFO       ACCESS:   22658125  HIT:   21049980  MISS:    1608145  HIT %:    92.9026  MISS %:    7.09743   MPKI: 8.04072
L1D PREFETCH  ACCESS:      33871  HIT:      28344  MISS:       5527  HIT %:    83.6822  MISS %:    16.3178   MPKI: 0.027635
L1D PREFETCH  REQUESTED:      77388  ISSUED:      77388  USEFUL:       1589  USELESS:       3939
L1D USEFUL LOAD PREFETCHES:       1589 PREFETCH ISSUED TO LOWER LEVEL:       8153  ACCURACY: 19.4898
L1D TIMELY PREFETCHES:       1589 LATE PREFETCHES: 894 DROPPED PREFETCHES: 1424
L1D PREFETCHES SAME FILL-ORIGIN LEVEL: 6421 DIFFERENT FILL-ORIGIN LEVEL: 1732
L1D AVERAGE MISS LATENCY: 37.2039 cycles
L1D RQ	ACCESS:   57207403	FORWARD:          0	MERGED:   21736393	TO_CACHE:   35455585
L1D WQ	ACCESS:   22784835	FORWARD:      15425	MERGED:       1051	TO_CACHE:   22783784
L1D PQ	ACCESS:      38694	FORWARD:          0	MERGED:          0	TO_CACHE:      38694

L1D UNIQUE REGIONS ACCESSED: 0
L1D REGIONS CONFLICTS: 0
L1D Cross Page Prefetch Requests: 143603
L1D Same Page Prefetch Requests: 18730
L1D ROI Sum of L1D PQ occupancy: 568129
L1D PREFETCHES PUSHED FROM L2C: 0
L1I TOTAL     ACCESS:   34986377  HIT:   34936720  MISS:      49657  HIT %:    99.8581  MISS %:   0.141932   MPKI: 0.248285
L1I LOAD      ACCESS:   34986377  HIT:   34936720  MISS:      49657  HIT %:    99.8581  MISS %:   0.141932   MPKI: 0.248285
L1I PREFETCH  REQUESTED:          0  ISSUED:          0  USEFUL:          0  USELESS:          0
L1I USEFUL LOAD PREFETCHES:          0 PREFETCH ISSUED TO LOWER LEVEL:          0  ACCURACY: -nan
L1I TIMELY PREFETCHES:          0 LATE PREFETCHES: 0 DROPPED PREFETCHES: 0
L1I PREFETCHES SAME FILL-ORIGIN LEVEL: 0 DIFFERENT FILL-ORIGIN LEVEL: 0
L1I AVERAGE MISS LATENCY: 17.1123 cycles
L1I RQ	ACCESS:   52032095	FORWARD:          0	MERGED:   17020589	TO_CACHE:   35011506

BTB TOTAL     ACCESS:     207305  HIT:     204093  MISS:       3212  HIT %:    98.4506  MISS %:    1.54941   MPKI: 0.01606
BTB BRANCH_DIRECT_JUMP	ACCESS:      61458  HIT:      61423  MISS:         35
BTB BRANCH_INDIRECT	ACCESS:      58898  HIT:      58820  MISS:         78
BTB BRANCH_CONDITIONAL	ACCESS:      74915  HIT:      74516  MISS:        399
BTB BRANCH_DIRECT_CALL	ACCESS:       6013  HIT:       5388  MISS:        625
BTB BRANCH_INDIRECT_CALL	ACCESS:          3  HIT:          0  MISS:          3
BTB BRANCH_RETURN	ACCESS:       6018  HIT:       3946  MISS:       2072
BTB BRANCH_OTHER ACCESS:          0  HIT:          0  MISS:          0

L2C TOTAL     ACCESS:   24718637  HIT:   22489879  MISS:    2228758  HIT %:    90.9835  MISS %:    9.01651   MPKI: 11.1438
L2C LOAD      ACCESS:   21269682  HIT:   19097224  MISS:    2172458  HIT %:    89.7861  MISS %:    10.2139   MPKI: 10.8623
L2C DATA LOAD MPKI: 10.8581
L2C INSTRUCTION LOAD MPKI: 0.004235
L2C RFO       ACCESS:    1605519  HIT:    1583778  MISS:      21741  HIT %:    98.6459  MISS %:    1.35414   MPKI: 0.108705
L2C PREFETCH  ACCESS:       8140  HIT:       7857  MISS:        283  HIT %:    96.5233  MISS %:    3.47666   MPKI: 0.001415
L2C DATA PREFETCH MPKI: 0.001415
L2C INSTRUCTION PREFETCH MPKI: 0
L2C WRITEBACK ACCESS:    1793785  HIT:    1793686  MISS:         99  HIT %:    99.9945  MISS %: 0.00551906   MPKI: 0.000495
L2C LOAD TRANSLATION ACCESS:      39283  HIT:       5114  MISS:      34169  HIT %:    13.0184  MISS %:    86.9816   MPKI: 0.170845
L2C TRANSLATION FROM L1D PREFETCHER ACCESS:       2228  HIT:       2220  MISS:          8  HIT %:    99.6409  MISS %:   0.359066   MPKI: 4e-05
L2C PREFETCH  REQUESTED:          0  ISSUED:          0  USEFUL:        149  USELESS:        151
L2C USEFUL LOAD PREFETCHES:        149 PREFETCH ISSUED TO LOWER LEVEL:        283  ACCURACY: 52.6502
L2C TIMELY PREFETCHES:        149 LATE PREFETCHES: 0 DROPPED PREFETCHES: 0
L2C PREFETCHES SAME FILL-ORIGIN LEVEL: 199 DIFFERENT FILL-ORIGIN LEVEL: 0
L2C AVERAGE MISS LATENCY: 230.929 cycles
L2C RQ	ACCESS:   23335916	FORWARD:          0	MERGED:          0	TO_CACHE:   22916714
L2C WQ	ACCESS:    1793785	FORWARD:     419203	MERGED:          0	TO_CACHE:    1793785
L2C PQ	ACCESS:       8153	FORWARD:          0	MERGED:          0	TO_CACHE:       8152

L2C Instructions Evicting Data 786
L2C Translations Evicting Data 33542
L2C Data Evicting Data 2159156
L2C Instructions Evicting Instructions 40
L2C Translations Evicting Instructions 27
L2C Data Evicting Instructions 924
L2C Instructions Evicting Translations 21
L2C Translations Evicting Translations 608
L2C Data Evicting Translations 33555
L2C Dense regions hint from L2: 0
PSCL5 TOTAL     ACCESS:      25780  HIT:      25780  MISS:          0  HIT %:        100  MISS %:          0   MPKI: 0
PSCL5 LOAD TRANSLATION ACCESS:      24549  HIT:      24549  MISS:          0  HIT %:        100  MISS %:          0   MPKI: 0
PSCL5 TRANSLATION FROM L1D PREFETCHER ACCESS:       1231  HIT:       1231  MISS:          0  HIT %:        100  MISS %:          0   MPKI: 0
PSCL5 PREFETCH  REQUESTED:          0  ISSUED:          0  USEFUL:          0  USELESS:          0
PSCL5 USEFUL LOAD PREFETCHES:          0 PREFETCH ISSUED TO LOWER LEVEL:          0  ACCURACY: -nan
PSCL5 TIMELY PREFETCHES:          0 LATE PREFETCHES: 0 DROPPED PREFETCHES: 0
PSCL5 PREFETCHES SAME FILL-ORIGIN LEVEL: 0 DIFFERENT FILL-ORIGIN LEVEL: 0

PSCL4 TOTAL     ACCESS:      25780  HIT:      25780  MISS:          0  HIT %:        100  MISS %:          0   MPKI: 0
PSCL4 LOAD TRANSLATION ACCESS:      24549  HIT:      24549  MISS:          0  HIT %:        100  MISS %:          0   MPKI: 0
PSCL4 TRANSLATION FROM L1D PREFETCHER ACCESS:       1231  HIT:       1231  MISS:          0  HIT %:        100  MISS %:          0   MPKI: 0
PSCL4 PREFETCH  REQUESTED:          0  ISSUED:          0  USEFUL:          0  USELESS:          0
PSCL4 USEFUL LOAD PREFETCHES:          0 PREFETCH ISSUED TO LOWER LEVEL:          0  ACCURACY: -nan
PSCL4 TIMELY PREFETCHES:          0 LATE PREFETCHES: 0 DROPPED PREFETCHES: 0
PSCL4 PREFETCHES SAME FILL-ORIGIN LEVEL: 0 DIFFERENT FILL-ORIGIN LEVEL: 0

PSCL3 TOTAL     ACCESS:      25615  HIT:      25611  MISS:          4  HIT %:    99.9844  MISS %:  0.0156159   MPKI: 2e-05
PSCL3 LOAD TRANSLATION ACCESS:      24549  HIT:      24545  MISS:          4  HIT %:    99.9837  MISS %:  0.0162939   MPKI: 2e-05
PSCL3 TRANSLATION FROM L1D PREFETCHER ACCESS:       1066  HIT:       1066  MISS:          0  HIT %:        100  MISS %:          0   MPKI: 0
PSCL3 PREFETCH  REQUESTED:          0  ISSUED:          0  USEFUL:          0  USELESS:          0
PSCL3 USEFUL LOAD PREFETCHES:          0 PREFETCH ISSUED TO LOWER LEVEL:          0  ACCURACY: -nan
PSCL3 TIMELY PREFETCHES:          0 LATE PREFETCHES: 0 DROPPED PREFETCHES: 0
PSCL3 PREFETCHES SAME FILL-ORIGIN LEVEL: 0 DIFFERENT FILL-ORIGIN LEVEL: 0

PSCL2 TOTAL     ACCESS:      24948  HIT:      10145  MISS:      14803  HIT %:    40.6646  MISS %:    59.3354   MPKI: 0.074015
PSCL2 LOAD TRANSLATION ACCESS:      24549  HIT:       9746  MISS:      14803  HIT %:    39.7002  MISS %:    60.2998   MPKI: 0.074015
PSCL2 TRANSLATION FROM L1D PREFETCHER ACCESS:        399  HIT:        399  MISS:          0  HIT %:        100  MISS %:          0   MPKI: 0
PSCL2 PREFETCH  REQUESTED:          0  ISSUED:          0  USEFUL:          0  USELESS:          0
PSCL2 USEFUL LOAD PREFETCHES:          0 PREFETCH ISSUED TO LOWER LEVEL:          0  ACCURACY: -nan
PSCL2 TIMELY PREFETCHES:          0 LATE PREFETCHES: 0 DROPPED PREFETCHES: 0
PSCL2 PREFETCHES SAME FILL-ORIGIN LEVEL: 0 DIFFERENT FILL-ORIGIN LEVEL: 0

LLC TOTAL     ACCESS:    2419568  HIT:     869549  MISS:    1550019  HIT %:    35.9382  MISS %:    64.0618   MPKI: 7.75009
LLC LOAD      ACCESS:    2172458  HIT:     630213  MISS:    1542245  HIT %:    29.0092  MISS %:    70.9908   MPKI: 7.71122
LLC RFO       ACCESS:      21733  HIT:      20591  MISS:       1142  HIT %:    94.7453  MISS %:    5.25468   MPKI: 0.00571
LLC PREFETCH  ACCESS:        283  HIT:         66  MISS:        217  HIT %:    23.3216  MISS %:    76.6784   MPKI: 0.001085
LLC WRITEBACK ACCESS:     190917  HIT:     188247  MISS:       2670  HIT %:    98.6015  MISS %:    1.39851   MPKI: 0.01335
LLC LOAD TRANSLATION ACCESS:      34169  HIT:      30428  MISS:       3741  HIT %:    89.0515  MISS %:    10.9485   MPKI: 0.018705
LLC TRANSLATION FROM L1D PREFETCHER ACCESS:          8  HIT:          4  MISS:          4  HIT %:         50  MISS %:         50   MPKI: 2e-05
LLC PREFETCH  REQUESTED:          0  ISSUED:          0  USEFUL:         56  USELESS:        337
LLC USEFUL LOAD PREFETCHES:         56 PREFETCH ISSUED TO LOWER LEVEL:        217  ACCURACY: 25.8065
LLC TIMELY PREFETCHES:         56 LATE PREFETCHES: 0 DROPPED PREFETCHES: 0
LLC PREFETCHES SAME FILL-ORIGIN LEVEL: 0 DIFFERENT FILL-ORIGIN LEVEL: 0
LLC AVERAGE MISS LATENCY: 288.07 cycles
LLC RQ	ACCESS:    2228377	FORWARD:          0	MERGED:          0	TO_CACHE:    2228369
LLC WQ	ACCESS:     190917	FORWARD:          8	MERGED:          0	TO_CACHE:     190917
LLC PQ	ACCESS:        283	FORWARD:          0	MERGED:          0	TO_CACHE:        283

LLC Dense regions hint to LLC: 0

RAW hits: 84366
Loads Generated: 57291774
Loads sent to L1D: 57207403
Stores Generated: 22785114
Stores sent to L1D: 22785114
Major fault: 0 Minor fault: 17275
Allocated PAGES: 17275

DRAM Statistics
 CHANNEL 0
 RQ ROW_BUFFER_HIT:     752946  ROW_BUFFER_MISS:     794404
 DBUS_CONGESTED:        260
 WQ ROW_BUFFER_HIT:      97105  ROW_BUFFER_MISS:      94697  FULL:          0

 AVG_CONGESTED_CYCLE: 5
 All warmup complete: 2
Channel 0 Bank busy for read cycles: 0
Channel 0 Bank busy for write cycles: 0
Channel 0
Rank 0
0banks busy for read cycles: 154069367
0banks busy for write cycles: 45309
1banks busy for read cycles: 32434636
1banks busy for write cycles: 10715207
2banks busy for read cycles: 5047962
2banks busy for write cycles: 2823605
3banks busy for read cycles: 35494050
3banks busy for write cycles: 6097803
4banks busy for read cycles: 1705187
4banks busy for write cycles: 1926181
5banks busy for read cycles: 180806
5banks busy for write cycles: 172579
6banks busy for read cycles: 9882
6banks busy for write cycles: 28503
7banks busy for read cycles: 1918
7banks busy for write cycles: 4903
8banks busy for read cycles: 0
8banks busy for write cycles: 544

CPU 0 Branch Prediction Accuracy: 99.2822% MPKI: 0.005245 Average ROB Occupancy at Mispredict: 33.0048
Branch types
NOT_BRANCH: 199721295 99.8606%
BRANCH_DIRECT_JUMP: 61458 0.030729%
BRANCH_INDIRECT: 58898 0.029449%
BRANCH_CONDITIONAL: 146148 0.073074%
BRANCH_DIRECT_CALL: 6013 0.0030065%
BRANCH_INDIRECT_CALL: 3 1.5e-06%
BRANCH_RETURN: 6018 0.003009%
BRANCH_OTHER: 0 0%

DRAM PAGES: 1048576
Allocated PAGES: 17275
