526208 bits of metadata so far, 405638 left out of 526336 total budget
table size is 13521 bits, 2253 entries for 5 bit, 1931 entries for 6 bit
526208 total bits (64.23KB)

*** ChampSim Multicore Out-of-Order Simulator ***

Warmup Instructions: 50000000
Simulation Instructions: 200000000
Number of CPUs: 1
LLC sets: 2048
LLC ways: 16
Off-chip DRAM Size: 4096 MB Channels: 1 Width: 64-bit Data Rate: 6400 MT/s
argv[0]: ./ChampSim/Berti/bin/multiperspective_perceptron-no-vberti-no-no-no-no-no-lru-lru-lru-srrip-drrip-lru-lru-lru-1core-no
argv[1]: -warmup_instructions
argv[2]: 50000000
argv[3]: -simulation_instructions
argv[4]: 200000000
argv[5]: -traces
argv[6]: traces/spec2k17_ten/607.cactuBSSN_s-4248B.champsimtrace.xz
CPU 0 runs traces/spec2k17_ten/607.cactuBSSN_s-4248B.champsimtrace.xz
.xz
CPU 0 Multiperspective perceptron branch predictor
BTB has LRU replacement policy
ITLB has LRU replacement policy
DTLB has LRU replacement policy
STLB has LRU replacement policy
L1I has LRU replacement policy
History Sets: 8
History Ways: 16
BERTI Size: 16
BERTI Stride Size: 16
L1D has LRU replacement policy
Initialize SRRIP state for L2C
Initialize DRRIP state for LLC
Heartbeat CPU 0 instructions: 10000003 cycles: 2722102 heartbeat IPC: 3.67363 cumulative IPC: 3.67363 (Simulation time: 0 hr 6 min 17 sec) 
Heartbeat CPU 0 instructions: 20000001 cycles: 5444203 heartbeat IPC: 3.67363 cumulative IPC: 3.67363 (Simulation time: 0 hr 12 min 43 sec) 
Heartbeat CPU 0 instructions: 30000001 cycles: 8166264 heartbeat IPC: 3.67369 cumulative IPC: 3.67365 (Simulation time: 0 hr 18 min 26 sec) 
Heartbeat CPU 0 instructions: 40000003 cycles: 10888320 heartbeat IPC: 3.67369 cumulative IPC: 3.67366 (Simulation time: 0 hr 21 min 40 sec) 
Heartbeat CPU 0 instructions: 50000001 cycles: 13610445 heartbeat IPC: 3.6736 cumulative IPC: 3.67365 (Simulation time: 0 hr 26 min 2 sec) 

Warmup complete CPU 0 instructions: 50000001 cycles: 13610445 (Simulation time: 0 hr 26 min 2 sec) 

Heartbeat CPU 0 instructions: 60000002 cycles: 23611205 heartbeat IPC: 0.999924 cumulative IPC: 0.999924 (Simulation time: 0 hr 30 min 50 sec) 
Heartbeat CPU 0 instructions: 70000000 cycles: 33729068 heartbeat IPC: 0.988351 cumulative IPC: 0.994104 (Simulation time: 0 hr 35 min 7 sec) 
Heartbeat CPU 0 instructions: 80000000 cycles: 43846485 heartbeat IPC: 0.988395 cumulative IPC: 0.992193 (Simulation time: 0 hr 38 min 54 sec) 
Heartbeat CPU 0 instructions: 90000002 cycles: 53963858 heartbeat IPC: 0.988399 cumulative IPC: 0.991242 (Simulation time: 0 hr 43 min 4 sec) 
Heartbeat CPU 0 instructions: 100000001 cycles: 64081332 heartbeat IPC: 0.988389 cumulative IPC: 0.99067 (Simulation time: 0 hr 47 min 32 sec) 
Heartbeat CPU 0 instructions: 110000000 cycles: 74198672 heartbeat IPC: 0.988402 cumulative IPC: 0.990291 (Simulation time: 0 hr 51 min 58 sec) 
Heartbeat CPU 0 instructions: 120000003 cycles: 84315873 heartbeat IPC: 0.988416 cumulative IPC: 0.990023 (Simulation time: 0 hr 56 min 21 sec) 
Heartbeat CPU 0 instructions: 130000003 cycles: 94433418 heartbeat IPC: 0.988382 cumulative IPC: 0.989818 (Simulation time: 1 hr 1 min 5 sec) 
Heartbeat CPU 0 instructions: 140000000 cycles: 104550698 heartbeat IPC: 0.988408 cumulative IPC: 0.989661 (Simulation time: 1 hr 5 min 20 sec) 
Heartbeat CPU 0 instructions: 150000003 cycles: 114668110 heartbeat IPC: 0.988395 cumulative IPC: 0.989534 (Simulation time: 1 hr 9 min 49 sec) 
Heartbeat CPU 0 instructions: 160000002 cycles: 124785493 heartbeat IPC: 0.988398 cumulative IPC: 0.989431 (Simulation time: 1 hr 13 min 50 sec) 
Heartbeat CPU 0 instructions: 170000000 cycles: 134902720 heartbeat IPC: 0.988413 cumulative IPC: 0.989346 (Simulation time: 1 hr 17 min 36 sec) 
Heartbeat CPU 0 instructions: 180000000 cycles: 145020227 heartbeat IPC: 0.988386 cumulative IPC: 0.989272 (Simulation time: 1 hr 21 min 49 sec) 
Heartbeat CPU 0 instructions: 190000002 cycles: 155137716 heartbeat IPC: 0.988388 cumulative IPC: 0.989209 (Simulation time: 1 hr 25 min 35 sec) 
Heartbeat CPU 0 instructions: 200000000 cycles: 165255330 heartbeat IPC: 0.988375 cumulative IPC: 0.989153 (Simulation time: 1 hr 28 min 46 sec) 
Heartbeat CPU 0 instructions: 210000000 cycles: 175372664 heartbeat IPC: 0.988403 cumulative IPC: 0.989106 (Simulation time: 1 hr 32 min 3 sec) 
Heartbeat CPU 0 instructions: 220000000 cycles: 185489748 heartbeat IPC: 0.988427 cumulative IPC: 0.989066 (Simulation time: 1 hr 35 min 14 sec) 
Heartbeat CPU 0 instructions: 230000002 cycles: 195607291 heartbeat IPC: 0.988382 cumulative IPC: 0.989028 (Simulation time: 1 hr 37 min 58 sec) 
Heartbeat CPU 0 instructions: 240000001 cycles: 205724590 heartbeat IPC: 0.988406 cumulative IPC: 0.988995 (Simulation time: 1 hr 40 min 28 sec) 
Heartbeat CPU 0 instructions: 250000003 cycles: 215842161 heartbeat IPC: 0.98838 cumulative IPC: 0.988965 (Simulation time: 1 hr 42 min 38 sec) 
Finished CPU 0 instructions: 200000002 cycles: 202231716 cumulative IPC: 0.988965 (Simulation time: 1 hr 42 min 38 sec) 

ChampSim completed all CPUs

Region of Interest Statistics

CPU 0 cumulative IPC: 0.988965 instructions: 200000002 cycles: 202231716
ITLB TOTAL     ACCESS:   27846595  HIT:   27846558  MISS:         37  HIT %:    99.9999  MISS %: 0.000132871   MPKI: 0.000185
ITLB LOAD TRANSLATION ACCESS:   27846595  HIT:   27846558  MISS:         37  HIT %:    99.9999  MISS %: 0.000132871   MPKI: 0.000185
ITLB PREFETCH  REQUESTED:          0  ISSUED:          0  USEFUL:          0  USELESS:          0
ITLB USEFUL LOAD PREFETCHES:          0 PREFETCH ISSUED TO LOWER LEVEL:          0  ACCURACY: -nan
ITLB TIMELY PREFETCHES:          0 LATE PREFETCHES: 0 DROPPED PREFETCHES: 0
ITLB PREFETCHES SAME FILL-ORIGIN LEVEL: 0 DIFFERENT FILL-ORIGIN LEVEL: 0
ITLB AVERAGE MISS LATENCY: 228.838 cycles
ITLB RQ	ACCESS:   37178200	FORWARD:          0	MERGED:    9331600	TO_CACHE:   27846600

DTLB TOTAL     ACCESS:   25590356  HIT:   25587302  MISS:       3054  HIT %:    99.9881  MISS %:  0.0119342   MPKI: 0.01527
DTLB LOAD TRANSLATION ACCESS:   25590356  HIT:   25587302  MISS:       3054  HIT %:    99.9881  MISS %:  0.0119342   MPKI: 0.01527
DTLB PREFETCH  REQUESTED:          0  ISSUED:          0  USEFUL:          0  USELESS:          0
DTLB USEFUL LOAD PREFETCHES:          0 PREFETCH ISSUED TO LOWER LEVEL:          0  ACCURACY: -nan
DTLB TIMELY PREFETCHES:          0 LATE PREFETCHES: 0 DROPPED PREFETCHES: 0
DTLB PREFETCHES SAME FILL-ORIGIN LEVEL: 0 DIFFERENT FILL-ORIGIN LEVEL: 0
DTLB AVERAGE MISS LATENCY: 121.423 cycles
DTLB RQ	ACCESS:   36119726	FORWARD:          0	MERGED:   10529369	TO_CACHE:   25590357

STLB TOTAL     ACCESS:    1527066  HIT:    1523975  MISS:       3091  HIT %:    99.7976  MISS %:   0.202414   MPKI: 0.015455
STLB LOAD TRANSLATION ACCESS:       3091  HIT:          0  MISS:       3091  HIT %:          0  MISS %:        100   MPKI: 0.015455
STLB TRANSLATION FROM L1D PREFETCHER ACCESS:    1523975  HIT:    1523975  MISS:          0  HIT %:        100  MISS %:          0   MPKI: 0
STLB PREFETCH  REQUESTED:          0  ISSUED:          0  USEFUL:          0  USELESS:          0
STLB USEFUL LOAD PREFETCHES:          0 PREFETCH ISSUED TO LOWER LEVEL:          0  ACCURACY: -nan
STLB TIMELY PREFETCHES:          0 LATE PREFETCHES: 0 DROPPED PREFETCHES: 355574
STLB PREFETCHES SAME FILL-ORIGIN LEVEL: 0 DIFFERENT FILL-ORIGIN LEVEL: 0
STLB AVERAGE MISS LATENCY: 113.709 cycles
STLB RQ	ACCESS:   12458560	FORWARD:          0	MERGED:   10575920	TO_CACHE:    1882640

STLB Hit, L1D data hit: 0
STLB Hit, L2C data hit: 0
STLB Hit, LLC data hit: 0
STLB Hit, LLC data miss: 0
STLB STLB hints to L2: 0
L1D TOTAL     ACCESS:   46999325  HIT:   46805635  MISS:     193690  HIT %:    99.5879  MISS %:   0.412112   MPKI: 0.96845
L1D LOAD      ACCESS:   29906678  HIT:   29903496  MISS:       3182  HIT %:    99.9894  MISS %:  0.0106398   MPKI: 0.01591
L1D RFO       ACCESS:    6212970  HIT:    6212957  MISS:         13  HIT %:    99.9998  MISS %: 0.00020924   MPKI: 6.5e-05
L1D PREFETCH  ACCESS:   10879677  HIT:   10689182  MISS:     190495  HIT %:    98.2491  MISS %:    1.75093   MPKI: 0.952475
L1D PREFETCH  REQUESTED:   24911414  ISSUED:   24911414  USEFUL:     190492  USELESS:         13
L1D USEFUL LOAD PREFETCHES:     190492 PREFETCH ISSUED TO LOWER LEVEL:     708600  ACCURACY: 26.8829
L1D TIMELY PREFETCHES:     190492 LATE PREFETCHES: 0 DROPPED PREFETCHES: 1042893
L1D PREFETCHES SAME FILL-ORIGIN LEVEL: 190495 DIFFERENT FILL-ORIGIN LEVEL: 518105
L1D AVERAGE MISS LATENCY: 94.2096 cycles
L1D RQ	ACCESS:   35797716	FORWARD:          0	MERGED:    5844470	TO_CACHE:   29906743
L1D WQ	ACCESS:    6213003	FORWARD:      46503	MERGED:         20	TO_CACHE:    6212983
L1D PQ	ACCESS:   12455945	FORWARD:          0	MERGED:        476	TO_CACHE:   12455469

L1D UNIQUE REGIONS ACCESSED: 0
L1D REGIONS CONFLICTS: 0
L1D Cross Page Prefetch Requests: 1294454
L1D Same Page Prefetch Requests: 14105091
L1D ROI Sum of L1D PQ occupancy: 203625763
L1D PREFETCHES PUSHED FROM L2C: 0
L1I TOTAL     ACCESS:   37178161  HIT:   37177923  MISS:        238  HIT %:    99.9994  MISS %: 0.000640161   MPKI: 0.00119
L1I LOAD      ACCESS:   37178161  HIT:   37177923  MISS:        238  HIT %:    99.9994  MISS %: 0.000640161   MPKI: 0.00119
L1I PREFETCH  REQUESTED:          0  ISSUED:          0  USEFUL:          0  USELESS:          0
L1I USEFUL LOAD PREFETCHES:          0 PREFETCH ISSUED TO LOWER LEVEL:          0  ACCURACY: -nan
L1I TIMELY PREFETCHES:          0 LATE PREFETCHES: 0 DROPPED PREFETCHES: 0
L1I PREFETCHES SAME FILL-ORIGIN LEVEL: 0 DIFFERENT FILL-ORIGIN LEVEL: 0
L1I AVERAGE MISS LATENCY: 183.328 cycles
L1I RQ	ACCESS:   48107313	FORWARD:          0	MERGED:   10929113	TO_CACHE:   37178200

BTB TOTAL     ACCESS:   17059568  HIT:   17059095  MISS:        473  HIT %:    99.9972  MISS %: 0.00277264   MPKI: 0.002365
BTB BRANCH_DIRECT_JUMP	ACCESS:    3105675  HIT:    3105639  MISS:         36
BTB BRANCH_INDIRECT	ACCESS:         15  HIT:          6  MISS:          9
BTB BRANCH_CONDITIONAL	ACCESS:   13953111  HIT:   13953004  MISS:        107
BTB BRANCH_DIRECT_CALL	ACCESS:        383  HIT:        257  MISS:        126
BTB BRANCH_INDIRECT_CALL	ACCESS:          0  HIT:          0  MISS:          0
BTB BRANCH_RETURN	ACCESS:        383  HIT:        189  MISS:        194
BTB BRANCH_OTHER ACCESS:          1  HIT:          0  MISS:          1

L2C TOTAL     ACCESS:    1069041  HIT:     874678  MISS:     194363  HIT %:    81.8189  MISS %:    18.1811   MPKI: 0.971815
L2C LOAD      ACCESS:       3420  HIT:         11  MISS:       3409  HIT %:   0.321637  MISS %:    99.6784   MPKI: 0.017045
L2C DATA LOAD MPKI: 0.015855
L2C INSTRUCTION LOAD MPKI: 0.00119
L2C RFO       ACCESS:         13  HIT:          2  MISS:         11  HIT %:    15.3846  MISS %:    84.6154   MPKI: 5.5e-05
L2C PREFETCH  ACCESS:     706883  HIT:     516370  MISS:     190513  HIT %:    73.0489  MISS %:    26.9511   MPKI: 0.952565
L2C DATA PREFETCH MPKI: 0.952565
L2C INSTRUCTION PREFETCH MPKI: 0
L2C WRITEBACK ACCESS:         60  HIT:         54  MISS:          6  HIT %:         90  MISS %:         10   MPKI: 3e-05
L2C LOAD TRANSLATION ACCESS:       3091  HIT:       3054  MISS:         37  HIT %:     98.803  MISS %:    1.19702   MPKI: 0.000185
L2C TRANSLATION FROM L1D PREFETCHER ACCESS:     355574  HIT:     355187  MISS:        387  HIT %:    99.8912  MISS %:   0.108838   MPKI: 0.001935
L2C PREFETCH  REQUESTED:          0  ISSUED:          0  USEFUL:        398  USELESS:     190503
L2C USEFUL LOAD PREFETCHES:        398 PREFETCH ISSUED TO LOWER LEVEL:     190517  ACCURACY: 0.208905
L2C TIMELY PREFETCHES:        398 LATE PREFETCHES: 4 DROPPED PREFETCHES: 0
L2C PREFETCHES SAME FILL-ORIGIN LEVEL: 43815 DIFFERENT FILL-ORIGIN LEVEL: 0
L2C AVERAGE MISS LATENCY: 102.556 cycles
L2C RQ	ACCESS:     362098	FORWARD:          0	MERGED:          0	TO_CACHE:     362098
L2C WQ	ACCESS:         60	FORWARD:          0	MERGED:          0	TO_CACHE:         60
L2C PQ	ACCESS:     708600	FORWARD:          0	MERGED:          0	TO_CACHE:     708600

L2C Instructions Evicting Data 238
L2C Translations Evicting Data 424
L2C Data Evicting Data 193035
L2C Instructions Evicting Instructions 0
L2C Translations Evicting Instructions 0
L2C Data Evicting Instructions 238
L2C Instructions Evicting Translations 0
L2C Translations Evicting Translations 0
L2C Data Evicting Translations 422
L2C Dense regions hint from L2: 0
PSCL5 TOTAL     ACCESS:     358665  HIT:     358665  MISS:          0  HIT %:        100  MISS %:          0   MPKI: 0
PSCL5 LOAD TRANSLATION ACCESS:       3091  HIT:       3091  MISS:          0  HIT %:        100  MISS %:          0   MPKI: 0
PSCL5 TRANSLATION FROM L1D PREFETCHER ACCESS:     355574  HIT:     355574  MISS:          0  HIT %:        100  MISS %:          0   MPKI: 0
PSCL5 PREFETCH  REQUESTED:          0  ISSUED:          0  USEFUL:          0  USELESS:          0
PSCL5 USEFUL LOAD PREFETCHES:          0 PREFETCH ISSUED TO LOWER LEVEL:          0  ACCURACY: -nan
PSCL5 TIMELY PREFETCHES:          0 LATE PREFETCHES: 0 DROPPED PREFETCHES: 0
PSCL5 PREFETCHES SAME FILL-ORIGIN LEVEL: 0 DIFFERENT FILL-ORIGIN LEVEL: 0

PSCL4 TOTAL     ACCESS:     358665  HIT:     358665  MISS:          0  HIT %:        100  MISS %:          0   MPKI: 0
PSCL4 LOAD TRANSLATION ACCESS:       3091  HIT:       3091  MISS:          0  HIT %:        100  MISS %:          0   MPKI: 0
PSCL4 TRANSLATION FROM L1D PREFETCHER ACCESS:     355574  HIT:     355574  MISS:          0  HIT %:        100  MISS %:          0   MPKI: 0
PSCL4 PREFETCH  REQUESTED:          0  ISSUED:          0  USEFUL:          0  USELESS:          0
PSCL4 USEFUL LOAD PREFETCHES:          0 PREFETCH ISSUED TO LOWER LEVEL:          0  ACCURACY: -nan
PSCL4 TIMELY PREFETCHES:          0 LATE PREFETCHES: 0 DROPPED PREFETCHES: 0
PSCL4 PREFETCHES SAME FILL-ORIGIN LEVEL: 0 DIFFERENT FILL-ORIGIN LEVEL: 0

PSCL3 TOTAL     ACCESS:     358665  HIT:     358665  MISS:          0  HIT %:        100  MISS %:          0   MPKI: 0
PSCL3 LOAD TRANSLATION ACCESS:       3091  HIT:       3091  MISS:          0  HIT %:        100  MISS %:          0   MPKI: 0
PSCL3 TRANSLATION FROM L1D PREFETCHER ACCESS:     355574  HIT:     355574  MISS:          0  HIT %:        100  MISS %:          0   MPKI: 0
PSCL3 PREFETCH  REQUESTED:          0  ISSUED:          0  USEFUL:          0  USELESS:          0
PSCL3 USEFUL LOAD PREFETCHES:          0 PREFETCH ISSUED TO LOWER LEVEL:          0  ACCURACY: -nan
PSCL3 TIMELY PREFETCHES:          0 LATE PREFETCHES: 0 DROPPED PREFETCHES: 0
PSCL3 PREFETCHES SAME FILL-ORIGIN LEVEL: 0 DIFFERENT FILL-ORIGIN LEVEL: 0

PSCL2 TOTAL     ACCESS:     357795  HIT:     357782  MISS:         13  HIT %:    99.9964  MISS %: 0.00363337   MPKI: 6.5e-05
PSCL2 LOAD TRANSLATION ACCESS:       3091  HIT:       3078  MISS:         13  HIT %:    99.5794  MISS %:   0.420576   MPKI: 6.5e-05
PSCL2 TRANSLATION FROM L1D PREFETCHER ACCESS:     354704  HIT:     354704  MISS:          0  HIT %:        100  MISS %:          0   MPKI: 0
PSCL2 PREFETCH  REQUESTED:          0  ISSUED:          0  USEFUL:          0  USELESS:          0
PSCL2 USEFUL LOAD PREFETCHES:          0 PREFETCH ISSUED TO LOWER LEVEL:          0  ACCURACY: -nan
PSCL2 TIMELY PREFETCHES:          0 LATE PREFETCHES: 0 DROPPED PREFETCHES: 0
PSCL2 PREFETCHES SAME FILL-ORIGIN LEVEL: 0 DIFFERENT FILL-ORIGIN LEVEL: 0

LLC TOTAL     ACCESS:     194415  HIT:         56  MISS:     194359  HIT %:  0.0288044  MISS %:    99.9712   MPKI: 0.971795
LLC LOAD      ACCESS:       3405  HIT:          0  MISS:       3405  HIT %:          0  MISS %:        100   MPKI: 0.017025
LLC RFO       ACCESS:         11  HIT:          0  MISS:         11  HIT %:          0  MISS %:        100   MPKI: 5.5e-05
LLC PREFETCH  ACCESS:     190517  HIT:          0  MISS:     190517  HIT %:          0  MISS %:        100   MPKI: 0.952585
LLC WRITEBACK ACCESS:         58  HIT:         51  MISS:          7  HIT %:     87.931  MISS %:     12.069   MPKI: 3.5e-05
LLC LOAD TRANSLATION ACCESS:         37  HIT:          0  MISS:         37  HIT %:          0  MISS %:        100   MPKI: 0.000185
LLC TRANSLATION FROM L1D PREFETCHER ACCESS:        387  HIT:          5  MISS:        382  HIT %:    1.29199  MISS %:     98.708   MPKI: 0.00191
LLC PREFETCH  REQUESTED:          0  ISSUED:          0  USEFUL:          2  USELESS:     190806
LLC USEFUL LOAD PREFETCHES:          2 PREFETCH ISSUED TO LOWER LEVEL:     190517  ACCURACY: 0.00104978
LLC TIMELY PREFETCHES:          2 LATE PREFETCHES: 0 DROPPED PREFETCHES: 0
LLC PREFETCHES SAME FILL-ORIGIN LEVEL: 0 DIFFERENT FILL-ORIGIN LEVEL: 0
LLC AVERAGE MISS LATENCY: 72.5559 cycles
LLC RQ	ACCESS:       3840	FORWARD:          0	MERGED:          0	TO_CACHE:       3840
LLC WQ	ACCESS:         58	FORWARD:          0	MERGED:          0	TO_CACHE:         58
LLC PQ	ACCESS:     190517	FORWARD:          0	MERGED:          0	TO_CACHE:     190517

LLC Dense regions hint to LLC: 0

RAW hits: 1504259
Loads Generated: 37301976
Loads sent to L1D: 35797716
Stores Generated: 6213002
Stores sent to L1D: 6213003
Major fault: 0 Minor fault: 3840
Allocated PAGES: 3840

DRAM Statistics
 CHANNEL 0
 RQ ROW_BUFFER_HIT:     191569  ROW_BUFFER_MISS:       2783
 DBUS_CONGESTED:          0
 WQ ROW_BUFFER_HIT:          0  ROW_BUFFER_MISS:         57  FULL:          0

 AVG_CONGESTED_CYCLE: -
 All warmup complete: 2
Channel 0 Bank busy for read cycles: 0
Channel 0 Bank busy for write cycles: 0
Channel 0
Rank 0
0banks busy for read cycles: 194839153
0banks busy for write cycles: 55
1banks busy for read cycles: 5789026
1banks busy for write cycles: 8102
2banks busy for read cycles: 1409225
2banks busy for write cycles: 2
3banks busy for read cycles: 6655
3banks busy for write cycles: 148
4banks busy for read cycles: 6329
4banks busy for write cycles: 0
5banks busy for read cycles: 6188
5banks busy for write cycles: 0
6banks busy for read cycles: 6135
6banks busy for write cycles: 0
7banks busy for read cycles: 10199
7banks busy for write cycles: 0
8banks busy for read cycles: 150500
8banks busy for write cycles: 0

CPU 0 Branch Prediction Accuracy: 99.957% MPKI: 0.046695 Average ROB Occupancy at Mispredict: 49.565
Branch types
NOT_BRANCH: 175188146 87.5941%
BRANCH_DIRECT_JUMP: 3105675 1.55284%
BRANCH_INDIRECT: 15 7.5e-06%
BRANCH_CONDITIONAL: 21705086 10.8525%
BRANCH_DIRECT_CALL: 383 0.0001915%
BRANCH_INDIRECT_CALL: 0 0%
BRANCH_RETURN: 383 0.0001915%
BRANCH_OTHER: 1 5e-07%

DRAM PAGES: 1048576
Allocated PAGES: 3840
