 (TOTAL 523355 bits 511 Kbits) 
*** ChampSim Multicore Out-of-Order Simulator ***

Warmup Instructions: 50000000
Simulation Instructions: 200000000
Number of CPUs: 1
LLC sets: 2048
LLC ways: 16
Off-chip DRAM Size: 4096 MB Channels: 1 Width: 64-bit Data Rate: 6400 MT/s
argv[0]: ./ChampSim/Berti/bin/tagescl-no-vberti-no-no-no-no-no-lru-lru-lru-srrip-drrip-lru-lru-lru-1core-no
argv[1]: -warmup_instructions
argv[2]: 50000000
argv[3]: -simulation_instructions
argv[4]: 200000000
argv[5]: -traces
argv[6]: traces/spec2k17_ten/654.roms_s-1021B.champsimtrace.xz
CPU 0 runs traces/spec2k17_ten/654.roms_s-1021B.champsimtrace.xz
.xz
CPU 0 Tage branch predictor
BTB has LRU replacement policy
ITLB has LRU replacement policy
DTLB has LRU replacement policy
STLB has LRU replacement policy
L1I has LRU replacement policy
History Sets: 8
History Ways: 16
BERTI Size: 16
BERTI Stride Size: 16
L1D has LRU replacement policy
Initialize SRRIP state for L2C
Initialize DRRIP state for LLC
Heartbeat CPU 0 instructions: 10000000 cycles: 2767038 heartbeat IPC: 3.61397 cumulative IPC: 3.61397 (Simulation time: 0 hr 5 min 17 sec) 
Heartbeat CPU 0 instructions: 20000003 cycles: 5533231 heartbeat IPC: 3.61508 cumulative IPC: 3.61453 (Simulation time: 0 hr 9 min 42 sec) 
Heartbeat CPU 0 instructions: 30000000 cycles: 8299570 heartbeat IPC: 3.61488 cumulative IPC: 3.61465 (Simulation time: 0 hr 14 min 44 sec) 
Heartbeat CPU 0 instructions: 40000003 cycles: 11065786 heartbeat IPC: 3.61505 cumulative IPC: 3.61475 (Simulation time: 0 hr 19 min 16 sec) 
Heartbeat CPU 0 instructions: 50000001 cycles: 13832103 heartbeat IPC: 3.61491 cumulative IPC: 3.61478 (Simulation time: 0 hr 23 min 25 sec) 

Warmup complete CPU 0 instructions: 50000001 cycles: 13832103 (Simulation time: 0 hr 23 min 25 sec) 

Heartbeat CPU 0 instructions: 60000001 cycles: 27278893 heartbeat IPC: 0.743672 cumulative IPC: 0.743672 (Simulation time: 0 hr 29 min 13 sec) 
Heartbeat CPU 0 instructions: 70000000 cycles: 40726232 heartbeat IPC: 0.743641 cumulative IPC: 0.743657 (Simulation time: 0 hr 35 min 59 sec) 
Heartbeat CPU 0 instructions: 80000000 cycles: 54173529 heartbeat IPC: 0.743644 cumulative IPC: 0.743652 (Simulation time: 0 hr 42 min 11 sec) 
Heartbeat CPU 0 instructions: 90000002 cycles: 67617900 heartbeat IPC: 0.743806 cumulative IPC: 0.743691 (Simulation time: 0 hr 46 min 59 sec) 
Heartbeat CPU 0 instructions: 100000000 cycles: 81067163 heartbeat IPC: 0.743535 cumulative IPC: 0.74366 (Simulation time: 0 hr 51 min 11 sec) 
Heartbeat CPU 0 instructions: 110000000 cycles: 93991128 heartbeat IPC: 0.773756 cumulative IPC: 0.748512 (Simulation time: 0 hr 56 min 2 sec) 
Heartbeat CPU 0 instructions: 120000002 cycles: 106570606 heartbeat IPC: 0.794946 cumulative IPC: 0.754811 (Simulation time: 1 hr 3 min 58 sec) 
Heartbeat CPU 0 instructions: 130000002 cycles: 119831456 heartbeat IPC: 0.754099 cumulative IPC: 0.754722 (Simulation time: 1 hr 10 min 34 sec) 
Heartbeat CPU 0 instructions: 140000003 cycles: 132466819 heartbeat IPC: 0.79143 cumulative IPC: 0.758631 (Simulation time: 1 hr 17 min 7 sec) 
Heartbeat CPU 0 instructions: 150000000 cycles: 145478989 heartbeat IPC: 0.768511 cumulative IPC: 0.759608 (Simulation time: 1 hr 20 min 52 sec) 
Heartbeat CPU 0 instructions: 160000000 cycles: 158968366 heartbeat IPC: 0.741324 cumulative IPC: 0.757908 (Simulation time: 1 hr 23 min 29 sec) 
Heartbeat CPU 0 instructions: 170000000 cycles: 172458912 heartbeat IPC: 0.74126 cumulative IPC: 0.756493 (Simulation time: 1 hr 26 min 15 sec) 
Heartbeat CPU 0 instructions: 180000000 cycles: 185948585 heartbeat IPC: 0.741308 cumulative IPC: 0.755302 (Simulation time: 1 hr 28 min 27 sec) 
Heartbeat CPU 0 instructions: 190000002 cycles: 199438502 heartbeat IPC: 0.741295 cumulative IPC: 0.754284 (Simulation time: 1 hr 29 min 57 sec) 
Heartbeat CPU 0 instructions: 200000002 cycles: 212925954 heartbeat IPC: 0.74143 cumulative IPC: 0.753414 (Simulation time: 1 hr 31 min 19 sec) 
Heartbeat CPU 0 instructions: 210000000 cycles: 226417212 heartbeat IPC: 0.741221 cumulative IPC: 0.75264 (Simulation time: 1 hr 32 min 39 sec) 
Heartbeat CPU 0 instructions: 220000000 cycles: 239907549 heartbeat IPC: 0.741271 cumulative IPC: 0.751961 (Simulation time: 1 hr 33 min 55 sec) 
Heartbeat CPU 0 instructions: 230000000 cycles: 253396587 heartbeat IPC: 0.741343 cumulative IPC: 0.751363 (Simulation time: 1 hr 35 min 1 sec) 
Heartbeat CPU 0 instructions: 240000003 cycles: 266885241 heartbeat IPC: 0.741364 cumulative IPC: 0.75083 (Simulation time: 1 hr 36 min 1 sec) 
Heartbeat CPU 0 instructions: 250000002 cycles: 280376587 heartbeat IPC: 0.741216 cumulative IPC: 0.750344 (Simulation time: 1 hr 36 min 55 sec) 
Finished CPU 0 instructions: 200000001 cycles: 266544484 cumulative IPC: 0.750344 (Simulation time: 1 hr 36 min 55 sec) 

ChampSim completed all CPUs

Region of Interest Statistics

CPU 0 cumulative IPC: 0.750344 instructions: 200000001 cycles: 266544484
ITLB TOTAL     ACCESS:   31194283  HIT:   31194281  MISS:          2  HIT %:        100  MISS %: 6.41143e-06   MPKI: 1e-05
ITLB LOAD TRANSLATION ACCESS:   31194283  HIT:   31194281  MISS:          2  HIT %:        100  MISS %: 6.41143e-06   MPKI: 1e-05
ITLB PREFETCH  REQUESTED:          0  ISSUED:          0  USEFUL:          0  USELESS:          0
ITLB USEFUL LOAD PREFETCHES:          0 PREFETCH ISSUED TO LOWER LEVEL:          0  ACCURACY: -nan
ITLB TIMELY PREFETCHES:          0 LATE PREFETCHES: 0 DROPPED PREFETCHES: 0
ITLB PREFETCHES SAME FILL-ORIGIN LEVEL: 0 DIFFERENT FILL-ORIGIN LEVEL: 0
ITLB AVERAGE MISS LATENCY: 125.5 cycles
ITLB RQ	ACCESS:   39306310	FORWARD:          0	MERGED:    8112028	TO_CACHE:   31194282

DTLB TOTAL     ACCESS:   33659665  HIT:   32827397  MISS:     832268  HIT %:    97.5274  MISS %:     2.4726   MPKI: 4.16134
DTLB LOAD TRANSLATION ACCESS:   33659665  HIT:   32827397  MISS:     832268  HIT %:    97.5274  MISS %:     2.4726   MPKI: 4.16134
DTLB PREFETCH  REQUESTED:          0  ISSUED:          0  USEFUL:          0  USELESS:          0
DTLB USEFUL LOAD PREFETCHES:          0 PREFETCH ISSUED TO LOWER LEVEL:          0  ACCURACY: -nan
DTLB TIMELY PREFETCHES:          0 LATE PREFETCHES: 0 DROPPED PREFETCHES: 0
DTLB PREFETCHES SAME FILL-ORIGIN LEVEL: 0 DIFFERENT FILL-ORIGIN LEVEL: 0
DTLB AVERAGE MISS LATENCY: 11.0852 cycles
DTLB RQ	ACCESS:   42600769	FORWARD:          0	MERGED:    8939512	TO_CACHE:   33661257

STLB TOTAL     ACCESS:    2708390  HIT:    2706296  MISS:       2094  HIT %:    99.9227  MISS %:  0.0773153   MPKI: 0.01047
STLB LOAD TRANSLATION ACCESS:     832270  HIT:     830176  MISS:       2094  HIT %:    99.7484  MISS %:   0.251601   MPKI: 0.01047
STLB TRANSLATION FROM L1D PREFETCHER ACCESS:    1876120  HIT:    1876120  MISS:          0  HIT %:        100  MISS %:          0   MPKI: 0
STLB PREFETCH  REQUESTED:          0  ISSUED:          0  USEFUL:          0  USELESS:          0
STLB USEFUL LOAD PREFETCHES:          0 PREFETCH ISSUED TO LOWER LEVEL:          0  ACCURACY: -nan
STLB TIMELY PREFETCHES:          0 LATE PREFETCHES: 32 DROPPED PREFETCHES: 124477
STLB PREFETCHES SAME FILL-ORIGIN LEVEL: 0 DIFFERENT FILL-ORIGIN LEVEL: 0
STLB AVERAGE MISS LATENCY: 432.305 cycles
STLB RQ	ACCESS:    6810332	FORWARD:          0	MERGED:    3977170	TO_CACHE:    2833162

STLB Hit, L1D data hit: 0
STLB Hit, L2C data hit: 0
STLB Hit, LLC data hit: 0
STLB Hit, LLC data miss: 0
STLB STLB hints to L2: 0
L1D TOTAL     ACCESS:   47858167  HIT:   47501704  MISS:     356463  HIT %:    99.2552  MISS %:   0.744832   MPKI: 1.78231
L1D LOAD      ACCESS:   28793150  HIT:   28698599  MISS:      94551  HIT %:    99.6716  MISS %:    0.32838   MPKI: 0.472755
L1D RFO       ACCESS:   13740058  HIT:   13686562  MISS:      53496  HIT %:    99.6107  MISS %:   0.389343   MPKI: 0.26748
L1D PREFETCH  ACCESS:    5324959  HIT:    5116543  MISS:     208416  HIT %:    96.0861  MISS %:    3.91395   MPKI: 1.04208
L1D PREFETCH  REQUESTED:   17858192  ISSUED:   12210877  USEFUL:     195137  USELESS:      13275
L1D USEFUL LOAD PREFETCHES:     195137 PREFETCH ISSUED TO LOWER LEVEL:     681861  ACCURACY: 28.6183
L1D TIMELY PREFETCHES:     195137 LATE PREFETCHES: 340 DROPPED PREFETCHES: 154609
L1D PREFETCHES SAME FILL-ORIGIN LEVEL: 208756 DIFFERENT FILL-ORIGIN LEVEL: 473105
L1D AVERAGE MISS LATENCY: 69.8996 cycles
L1D RQ	ACCESS:   43165203	FORWARD:          0	MERGED:   14168647	TO_CACHE:   28798068
L1D WQ	ACCESS:   14215278	FORWARD:     198488	MERGED:     412577	TO_CACHE:   13802701
L1D PQ	ACCESS:    6232815	FORWARD:          0	MERGED:     254753	TO_CACHE:    5978062

L1D UNIQUE REGIONS ACCESSED: 0
L1D REGIONS CONFLICTS: 0
L1D Cross Page Prefetch Requests: 1231231
L1D Same Page Prefetch Requests: 5016676
L1D ROI Sum of L1D PQ occupancy: 123631403
L1D PREFETCHES PUSHED FROM L2C: 0
L1I TOTAL     ACCESS:   39306269  HIT:   39306195  MISS:         74  HIT %:    99.9998  MISS %: 0.000188265   MPKI: 0.00037
L1I LOAD      ACCESS:   39306269  HIT:   39306195  MISS:         74  HIT %:    99.9998  MISS %: 0.000188265   MPKI: 0.00037
L1I PREFETCH  REQUESTED:          0  ISSUED:          0  USEFUL:          0  USELESS:          0
L1I USEFUL LOAD PREFETCHES:          0 PREFETCH ISSUED TO LOWER LEVEL:          0  ACCURACY: -nan
L1I TIMELY PREFETCHES:          0 LATE PREFETCHES: 0 DROPPED PREFETCHES: 0
L1I PREFETCHES SAME FILL-ORIGIN LEVEL: 0 DIFFERENT FILL-ORIGIN LEVEL: 0
L1I AVERAGE MISS LATENCY: 191.514 cycles
L1I RQ	ACCESS:   56268388	FORWARD:          0	MERGED:   16962078	TO_CACHE:   39306310

BTB TOTAL     ACCESS:   25367500  HIT:   24938588  MISS:     428912  HIT %:    98.3092  MISS %:    1.69079   MPKI: 2.14456
BTB BRANCH_DIRECT_JUMP	ACCESS:    2709971  HIT:    2709934  MISS:         37
BTB BRANCH_INDIRECT	ACCESS:     415743  HIT:     415740  MISS:          3
BTB BRANCH_CONDITIONAL	ACCESS:   20405809  HIT:   20405669  MISS:        140
BTB BRANCH_DIRECT_CALL	ACCESS:     917988  HIT:     917931  MISS:         57
BTB BRANCH_INDIRECT_CALL	ACCESS:          0  HIT:          0  MISS:          0
BTB BRANCH_RETURN	ACCESS:     917989  HIT:     489314  MISS:     428675
BTB BRANCH_OTHER ACCESS:          0  HIT:          0  MISS:          0

L2C TOTAL     ACCESS:    1144113  HIT:     911761  MISS:     232352  HIT %:    79.6915  MISS %:    20.3085   MPKI: 1.16176
L2C LOAD      ACCESS:      94284  HIT:      21549  MISS:      72735  HIT %:    22.8554  MISS %:    77.1446   MPKI: 0.363675
L2C DATA LOAD MPKI: 0.363305
L2C INSTRUCTION LOAD MPKI: 0.00037
L2C RFO       ACCESS:      53493  HIT:       5825  MISS:      47668  HIT %:    10.8893  MISS %:    89.1107   MPKI: 0.23834
L2C PREFETCH  ACCESS:     659332  HIT:     554072  MISS:     105260  HIT %:    84.0354  MISS %:    15.9646   MPKI: 0.5263
L2C DATA PREFETCH MPKI: 0.5263
L2C INSTRUCTION PREFETCH MPKI: 0
L2C WRITEBACK ACCESS:      83825  HIT:      79341  MISS:       4484  HIT %:    94.6508  MISS %:    5.34924   MPKI: 0.02242
L2C LOAD TRANSLATION ACCESS:       3502  HIT:       1498  MISS:       2004  HIT %:    42.7756  MISS %:    57.2244   MPKI: 0.01002
L2C TRANSLATION FROM L1D PREFETCHER ACCESS:     249677  HIT:     249476  MISS:        201  HIT %:    99.9195  MISS %:   0.080504   MPKI: 0.001005
L2C PREFETCH  REQUESTED:          0  ISSUED:          0  USEFUL:      10429  USELESS:      91160
L2C USEFUL LOAD PREFETCHES:      10429 PREFETCH ISSUED TO LOWER LEVEL:     105343  ACCURACY: 9.90004
L2C TIMELY PREFETCHES:      10429 LATE PREFETCHES: 83 DROPPED PREFETCHES: 0
L2C PREFETCHES SAME FILL-ORIGIN LEVEL: 51705 DIFFERENT FILL-ORIGIN LEVEL: 0
L2C AVERAGE MISS LATENCY: 109.138 cycles
L2C RQ	ACCESS:     400960	FORWARD:          0	MERGED:          0	TO_CACHE:     400956
L2C WQ	ACCESS:      83825	FORWARD:          4	MERGED:          0	TO_CACHE:      83825
L2C PQ	ACCESS:     681861	FORWARD:          0	MERGED:          0	TO_CACHE:     681861

L2C Instructions Evicting Data 44
L2C Translations Evicting Data 2150
L2C Data Evicting Data 217490
L2C Instructions Evicting Instructions 0
L2C Translations Evicting Instructions 1
L2C Data Evicting Instructions 292
L2C Instructions Evicting Translations 0
L2C Translations Evicting Translations 19
L2C Data Evicting Translations 2264
L2C Dense regions hint from L2: 0
PSCL5 TOTAL     ACCESS:     126603  HIT:     126603  MISS:          0  HIT %:        100  MISS %:          0   MPKI: 0
PSCL5 LOAD TRANSLATION ACCESS:       2094  HIT:       2094  MISS:          0  HIT %:        100  MISS %:          0   MPKI: 0
PSCL5 TRANSLATION FROM L1D PREFETCHER ACCESS:     124509  HIT:     124509  MISS:          0  HIT %:        100  MISS %:          0   MPKI: 0
PSCL5 PREFETCH  REQUESTED:          0  ISSUED:          0  USEFUL:          0  USELESS:          0
PSCL5 USEFUL LOAD PREFETCHES:          0 PREFETCH ISSUED TO LOWER LEVEL:          0  ACCURACY: -nan
PSCL5 TIMELY PREFETCHES:          0 LATE PREFETCHES: 0 DROPPED PREFETCHES: 0
PSCL5 PREFETCHES SAME FILL-ORIGIN LEVEL: 0 DIFFERENT FILL-ORIGIN LEVEL: 0

PSCL4 TOTAL     ACCESS:     126603  HIT:     126603  MISS:          0  HIT %:        100  MISS %:          0   MPKI: 0
PSCL4 LOAD TRANSLATION ACCESS:       2094  HIT:       2094  MISS:          0  HIT %:        100  MISS %:          0   MPKI: 0
PSCL4 TRANSLATION FROM L1D PREFETCHER ACCESS:     124509  HIT:     124509  MISS:          0  HIT %:        100  MISS %:          0   MPKI: 0
PSCL4 PREFETCH  REQUESTED:          0  ISSUED:          0  USEFUL:          0  USELESS:          0
PSCL4 USEFUL LOAD PREFETCHES:          0 PREFETCH ISSUED TO LOWER LEVEL:          0  ACCURACY: -nan
PSCL4 TIMELY PREFETCHES:          0 LATE PREFETCHES: 0 DROPPED PREFETCHES: 0
PSCL4 PREFETCHES SAME FILL-ORIGIN LEVEL: 0 DIFFERENT FILL-ORIGIN LEVEL: 0

PSCL3 TOTAL     ACCESS:     110580  HIT:     110555  MISS:         25  HIT %:    99.9774  MISS %:  0.0226081   MPKI: 0.000125
PSCL3 LOAD TRANSLATION ACCESS:       2094  HIT:       2069  MISS:         25  HIT %:    98.8061  MISS %:    1.19389   MPKI: 0.000125
PSCL3 TRANSLATION FROM L1D PREFETCHER ACCESS:     108486  HIT:     108486  MISS:          0  HIT %:        100  MISS %:          0   MPKI: 0
PSCL3 PREFETCH  REQUESTED:          0  ISSUED:          0  USEFUL:          0  USELESS:          0
PSCL3 USEFUL LOAD PREFETCHES:          0 PREFETCH ISSUED TO LOWER LEVEL:          0  ACCURACY: -nan
PSCL3 TIMELY PREFETCHES:          0 LATE PREFETCHES: 0 DROPPED PREFETCHES: 0
PSCL3 PREFETCHES SAME FILL-ORIGIN LEVEL: 0 DIFFERENT FILL-ORIGIN LEVEL: 0

PSCL2 TOTAL     ACCESS:      17421  HIT:      16028  MISS:       1393  HIT %:    92.0039  MISS %:     7.9961   MPKI: 0.006965
PSCL2 LOAD TRANSLATION ACCESS:       2094  HIT:        701  MISS:       1393  HIT %:    33.4766  MISS %:    66.5234   MPKI: 0.006965
PSCL2 TRANSLATION FROM L1D PREFETCHER ACCESS:      15327  HIT:      15327  MISS:          0  HIT %:        100  MISS %:          0   MPKI: 0
PSCL2 PREFETCH  REQUESTED:          0  ISSUED:          0  USEFUL:          0  USELESS:          0
PSCL2 USEFUL LOAD PREFETCHES:          0 PREFETCH ISSUED TO LOWER LEVEL:          0  ACCURACY: -nan
PSCL2 TIMELY PREFETCHES:          0 LATE PREFETCHES: 0 DROPPED PREFETCHES: 0
PSCL2 PREFETCHES SAME FILL-ORIGIN LEVEL: 0 DIFFERENT FILL-ORIGIN LEVEL: 0

LLC TOTAL     ACCESS:     294514  HIT:     177506  MISS:     117008  HIT %:    60.2708  MISS %:    39.7292   MPKI: 0.58504
LLC LOAD      ACCESS:      72653  HIT:      30311  MISS:      42342  HIT %:    41.7202  MISS %:    58.2798   MPKI: 0.21171
LLC RFO       ACCESS:      47667  HIT:      31362  MISS:      16305  HIT %:    65.7939  MISS %:    34.2061   MPKI: 0.081525
LLC PREFETCH  ACCESS:     105342  HIT:      48846  MISS:      56496  HIT %:     46.369  MISS %:     53.631   MPKI: 0.28248
LLC WRITEBACK ACCESS:      66647  HIT:      66237  MISS:        410  HIT %:    99.3848  MISS %:   0.615181   MPKI: 0.00205
LLC LOAD TRANSLATION ACCESS:       2004  HIT:        702  MISS:       1302  HIT %:    35.0299  MISS %:    64.9701   MPKI: 0.00651
LLC TRANSLATION FROM L1D PREFETCHER ACCESS:        201  HIT:         48  MISS:        153  HIT %:    23.8806  MISS %:    76.1194   MPKI: 0.000765
LLC PREFETCH  REQUESTED:          0  ISSUED:          0  USEFUL:      24304  USELESS:      23445
LLC USEFUL LOAD PREFETCHES:      24304 PREFETCH ISSUED TO LOWER LEVEL:      56496  ACCURACY: 43.019
LLC TIMELY PREFETCHES:      24304 LATE PREFETCHES: 0 DROPPED PREFETCHES: 0
LLC PREFETCHES SAME FILL-ORIGIN LEVEL: 0 DIFFERENT FILL-ORIGIN LEVEL: 0
LLC AVERAGE MISS LATENCY: 157.48 cycles
LLC RQ	ACCESS:     122525	FORWARD:          0	MERGED:          0	TO_CACHE:     122525
LLC WQ	ACCESS:      66647	FORWARD:          1	MERGED:          0	TO_CACHE:      66647
LLC PQ	ACCESS:     105343	FORWARD:          0	MERGED:          0	TO_CACHE:     105342

LLC Dense regions hint to LLC: 0

RAW hits: 1992002
Loads Generated: 45157206
Loads sent to L1D: 43165203
Stores Generated: 14215272
Stores sent to L1D: 14215278
Major fault: 0 Minor fault: 2932
Allocated PAGES: 2932

DRAM Statistics
 CHANNEL 0
 RQ ROW_BUFFER_HIT:      33339  ROW_BUFFER_MISS:      83238
 DBUS_CONGESTED:        220
 WQ ROW_BUFFER_HIT:       2110  ROW_BUFFER_MISS:       9182  FULL:          0

 AVG_CONGESTED_CYCLE: 4
 All warmup complete: 2
Channel 0 Bank busy for read cycles: 0
Channel 0 Bank busy for write cycles: 0
Channel 0
Rank 0
0banks busy for read cycles: 256465054
0banks busy for write cycles: 6353
1banks busy for read cycles: 5387756
1banks busy for write cycles: 978361
2banks busy for read cycles: 1972243
2banks busy for write cycles: 175115
3banks busy for read cycles: 737075
3banks busy for write cycles: 84053
4banks busy for read cycles: 322870
4banks busy for write cycles: 56841
5banks busy for read cycles: 128214
5banks busy for write cycles: 41377
6banks busy for read cycles: 44618
6banks busy for write cycles: 28709
7banks busy for read cycles: 21015
7banks busy for write cycles: 29736
8banks busy for read cycles: 32884
8banks busy for write cycles: 32211

CPU 0 Branch Prediction Accuracy: 99.9993% MPKI: 0.0009 Average ROB Occupancy at Mispredict: 73.7222
Branch types
NOT_BRANCH: 169977885 84.9889%
BRANCH_DIRECT_JUMP: 2709971 1.35499%
BRANCH_INDIRECT: 415743 0.207871%
BRANCH_CONDITIONAL: 25060389 12.5302%
BRANCH_DIRECT_CALL: 917988 0.458994%
BRANCH_INDIRECT_CALL: 0 0%
BRANCH_RETURN: 917989 0.458994%
BRANCH_OTHER: 0 0%

DRAM PAGES: 1048576
Allocated PAGES: 2932
