 (TOTAL 523355 bits 511 Kbits) 
*** ChampSim Multicore Out-of-Order Simulator ***

Warmup Instructions: 50000000
Simulation Instructions: 200000000
Number of CPUs: 1
LLC sets: 2048
LLC ways: 16
Off-chip DRAM Size: 4096 MB Channels: 1 Width: 64-bit Data Rate: 6400 MT/s
argv[0]: ./ChampSim/Berti/bin/tagescl-no-vberti-no-no-no-no-no-lru-lru-lru-srrip-drrip-lru-lru-lru-1core-no
argv[1]: -warmup_instructions
argv[2]: 50000000
argv[3]: -simulation_instructions
argv[4]: 200000000
argv[5]: -traces
argv[6]: traces/spec2k17_ten/654.roms_s-1613B.champsimtrace.xz
CPU 0 runs traces/spec2k17_ten/654.roms_s-1613B.champsimtrace.xz
.xz
CPU 0 Tage branch predictor
BTB has LRU replacement policy
ITLB has LRU replacement policy
DTLB has LRU replacement policy
STLB has LRU replacement policy
L1I has LRU replacement policy
History Sets: 8
History Ways: 16
BERTI Size: 16
BERTI Stride Size: 16
L1D has LRU replacement policy
Initialize SRRIP state for L2C
Initialize DRRIP state for LLC
Heartbeat CPU 0 instructions: 10000001 cycles: 2910522 heartbeat IPC: 3.43581 cumulative IPC: 3.43581 (Simulation time: 0 hr 7 min 29 sec) 
Heartbeat CPU 0 instructions: 20000000 cycles: 5820918 heartbeat IPC: 3.43596 cumulative IPC: 3.43588 (Simulation time: 0 hr 15 min 49 sec) 
Heartbeat CPU 0 instructions: 30000000 cycles: 8731348 heartbeat IPC: 3.43592 cumulative IPC: 3.4359 (Simulation time: 0 hr 23 min 13 sec) 
Heartbeat CPU 0 instructions: 40000000 cycles: 11641763 heartbeat IPC: 3.43594 cumulative IPC: 3.43591 (Simulation time: 0 hr 29 min 58 sec) 
Heartbeat CPU 0 instructions: 50000001 cycles: 15084408 heartbeat IPC: 2.90474 cumulative IPC: 3.31468 (Simulation time: 0 hr 37 min 8 sec) 

Warmup complete CPU 0 instructions: 50000001 cycles: 15084408 (Simulation time: 0 hr 37 min 8 sec) 

Heartbeat CPU 0 instructions: 60000001 cycles: 31695783 heartbeat IPC: 0.601997 cumulative IPC: 0.601997 (Simulation time: 0 hr 43 min 41 sec) 
Heartbeat CPU 0 instructions: 70000003 cycles: 48283990 heartbeat IPC: 0.602838 cumulative IPC: 0.602417 (Simulation time: 0 hr 49 min 9 sec) 
Heartbeat CPU 0 instructions: 80000000 cycles: 64862587 heartbeat IPC: 0.603187 cumulative IPC: 0.602674 (Simulation time: 0 hr 54 min 22 sec) 
Heartbeat CPU 0 instructions: 90000001 cycles: 81435323 heartbeat IPC: 0.603401 cumulative IPC: 0.602855 (Simulation time: 0 hr 59 min 28 sec) 
Heartbeat CPU 0 instructions: 100000000 cycles: 98011055 heartbeat IPC: 0.603292 cumulative IPC: 0.602942 (Simulation time: 1 hr 4 min 34 sec) 
Heartbeat CPU 0 instructions: 110000000 cycles: 114586398 heartbeat IPC: 0.603306 cumulative IPC: 0.603003 (Simulation time: 1 hr 9 min 10 sec) 
Heartbeat CPU 0 instructions: 120000001 cycles: 135886148 heartbeat IPC: 0.469489 cumulative IPC: 0.579462 (Simulation time: 1 hr 14 min 2 sec) 
Heartbeat CPU 0 instructions: 130000000 cycles: 152463926 heartbeat IPC: 0.603217 cumulative IPC: 0.582328 (Simulation time: 1 hr 16 min 50 sec) 
Heartbeat CPU 0 instructions: 140000003 cycles: 169039978 heartbeat IPC: 0.60328 cumulative IPC: 0.584584 (Simulation time: 1 hr 19 min 29 sec) 
Heartbeat CPU 0 instructions: 150000001 cycles: 185615839 heartbeat IPC: 0.603287 cumulative IPC: 0.586402 (Simulation time: 1 hr 21 min 51 sec) 
Heartbeat CPU 0 instructions: 160000002 cycles: 202189165 heartbeat IPC: 0.603379 cumulative IPC: 0.587906 (Simulation time: 1 hr 24 min 15 sec) 
Heartbeat CPU 0 instructions: 170000002 cycles: 218763882 heartbeat IPC: 0.603329 cumulative IPC: 0.589161 (Simulation time: 1 hr 26 min 5 sec) 
Heartbeat CPU 0 instructions: 180000000 cycles: 235339597 heartbeat IPC: 0.603292 cumulative IPC: 0.590224 (Simulation time: 1 hr 27 min 26 sec) 
Heartbeat CPU 0 instructions: 190000000 cycles: 251915420 heartbeat IPC: 0.603288 cumulative IPC: 0.591139 (Simulation time: 1 hr 28 min 44 sec) 
Heartbeat CPU 0 instructions: 200000003 cycles: 273036525 heartbeat IPC: 0.47346 cumulative IPC: 0.581503 (Simulation time: 1 hr 30 min 9 sec) 
Heartbeat CPU 0 instructions: 210000001 cycles: 289614921 heartbeat IPC: 0.603195 cumulative IPC: 0.582813 (Simulation time: 1 hr 30 min 52 sec) 
Heartbeat CPU 0 instructions: 220000000 cycles: 306191182 heartbeat IPC: 0.603272 cumulative IPC: 0.583978 (Simulation time: 1 hr 31 min 30 sec) 
Heartbeat CPU 0 instructions: 230000003 cycles: 322766860 heartbeat IPC: 0.603294 cumulative IPC: 0.585019 (Simulation time: 1 hr 32 min 13 sec) 
Heartbeat CPU 0 instructions: 240000003 cycles: 339339518 heartbeat IPC: 0.603404 cumulative IPC: 0.585958 (Simulation time: 1 hr 32 min 49 sec) 
Heartbeat CPU 0 instructions: 250000000 cycles: 355915373 heartbeat IPC: 0.603287 cumulative IPC: 0.586801 (Simulation time: 1 hr 33 min 26 sec) 
Finished CPU 0 instructions: 200000000 cycles: 340830982 cumulative IPC: 0.586801 (Simulation time: 1 hr 33 min 26 sec) 

ChampSim completed all CPUs

Region of Interest Statistics

CPU 0 cumulative IPC: 0.586801 instructions: 200000000 cycles: 340830982
ITLB TOTAL     ACCESS:   30455207  HIT:   30455199  MISS:          8  HIT %:        100  MISS %: 2.62681e-05   MPKI: 4e-05
ITLB LOAD TRANSLATION ACCESS:   30455207  HIT:   30455199  MISS:          8  HIT %:        100  MISS %: 2.62681e-05   MPKI: 4e-05
ITLB PREFETCH  REQUESTED:          0  ISSUED:          0  USEFUL:          0  USELESS:          0
ITLB USEFUL LOAD PREFETCHES:          0 PREFETCH ISSUED TO LOWER LEVEL:          0  ACCURACY: -nan
ITLB TIMELY PREFETCHES:          0 LATE PREFETCHES: 0 DROPPED PREFETCHES: 0
ITLB PREFETCHES SAME FILL-ORIGIN LEVEL: 0 DIFFERENT FILL-ORIGIN LEVEL: 0
ITLB AVERAGE MISS LATENCY: 245 cycles
ITLB RQ	ACCESS:   39719782	FORWARD:          0	MERGED:    9264575	TO_CACHE:   30455207

DTLB TOTAL     ACCESS:   41570101  HIT:   41557903  MISS:      12198  HIT %:    99.9707  MISS %:  0.0293432   MPKI: 0.06099
DTLB LOAD TRANSLATION ACCESS:   41570101  HIT:   41557903  MISS:      12198  HIT %:    99.9707  MISS %:  0.0293432   MPKI: 0.06099
DTLB PREFETCH  REQUESTED:          0  ISSUED:          0  USEFUL:          0  USELESS:          0
DTLB USEFUL LOAD PREFETCHES:          0 PREFETCH ISSUED TO LOWER LEVEL:          0  ACCURACY: -nan
DTLB TIMELY PREFETCHES:          0 LATE PREFETCHES: 0 DROPPED PREFETCHES: 0
DTLB PREFETCHES SAME FILL-ORIGIN LEVEL: 0 DIFFERENT FILL-ORIGIN LEVEL: 0
DTLB AVERAGE MISS LATENCY: 74.5715 cycles
DTLB RQ	ACCESS:   49866672	FORWARD:          0	MERGED:    8283375	TO_CACHE:   41583297

STLB TOTAL     ACCESS:    5278823  HIT:    5267460  MISS:      11363  HIT %:    99.7847  MISS %:   0.215256   MPKI: 0.056815
STLB LOAD TRANSLATION ACCESS:      12206  HIT:       5158  MISS:       7048  HIT %:    42.2579  MISS %:    57.7421   MPKI: 0.03524
STLB TRANSLATION FROM L1D PREFETCHER ACCESS:    5266617  HIT:    5262302  MISS:       4315  HIT %:    99.9181  MISS %:  0.0819312   MPKI: 0.021575
STLB PREFETCH  REQUESTED:          0  ISSUED:          0  USEFUL:       4315  USELESS:          0
STLB USEFUL LOAD PREFETCHES:       4315 PREFETCH ISSUED TO LOWER LEVEL:          0  ACCURACY: inf
STLB TIMELY PREFETCHES:       4315 LATE PREFETCHES: 322 DROPPED PREFETCHES: 56284
STLB PREFETCHES SAME FILL-ORIGIN LEVEL: 0 DIFFERENT FILL-ORIGIN LEVEL: 0
STLB AVERAGE MISS LATENCY: 92.1541 cycles
STLB RQ	ACCESS:   27124508	FORWARD:          0	MERGED:   21779610	TO_CACHE:    5344898

STLB Hit, L1D data hit: 0
STLB Hit, L2C data hit: 0
STLB Hit, LLC data hit: 0
STLB Hit, LLC data miss: 0
STLB STLB hints to L2: 0
L1D TOTAL     ACCESS:   72463715  HIT:   71882029  MISS:     581686  HIT %:    99.1973  MISS %:   0.802727   MPKI: 2.90843
L1D LOAD      ACCESS:   29520314  HIT:   29448553  MISS:      71761  HIT %:    99.7569  MISS %:    0.24309   MPKI: 0.358805
L1D RFO       ACCESS:   19383703  HIT:   19160578  MISS:     223125  HIT %:    98.8489  MISS %:     1.1511   MPKI: 1.11563
L1D PREFETCH  ACCESS:   23559698  HIT:   23272898  MISS:     286800  HIT %:    98.7827  MISS %:    1.21733   MPKI: 1.434
L1D PREFETCH  REQUESTED:   55898521  ISSUED:   55801800  USEFUL:     263936  USELESS:      22859
L1D USEFUL LOAD PREFETCHES:     263936 PREFETCH ISSUED TO LOWER LEVEL:    2996871  ACCURACY: 8.80705
L1D TIMELY PREFETCHES:     263936 LATE PREFETCHES: 4040 DROPPED PREFETCHES: 116863
L1D PREFETCHES SAME FILL-ORIGIN LEVEL: 290840 DIFFERENT FILL-ORIGIN LEVEL: 2706031
L1D AVERAGE MISS LATENCY: 175.295 cycles
L1D RQ	ACCESS:   40096791	FORWARD:          0	MERGED:   10489629	TO_CACHE:   29582793
L1D WQ	ACCESS:   21712373	FORWARD:      24371	MERGED:    1428494	TO_CACHE:   20283879
L1D PQ	ACCESS:   28689498	FORWARD:          0	MERGED:    1577194	TO_CACHE:   27112302

L1D UNIQUE REGIONS ACCESSED: 0
L1D REGIONS CONFLICTS: 0
L1D Cross Page Prefetch Requests: 2935801
L1D Same Page Prefetch Requests: 34988672
L1D ROI Sum of L1D PQ occupancy: 419553112
L1D PREFETCHES PUSHED FROM L2C: 0
L1I TOTAL     ACCESS:   39719761  HIT:   39719655  MISS:        106  HIT %:    99.9997  MISS %: 0.00026687   MPKI: 0.00053
L1I LOAD      ACCESS:   39719761  HIT:   39719655  MISS:        106  HIT %:    99.9997  MISS %: 0.00026687   MPKI: 0.00053
L1I PREFETCH  REQUESTED:          0  ISSUED:          0  USEFUL:          0  USELESS:          0
L1I USEFUL LOAD PREFETCHES:          0 PREFETCH ISSUED TO LOWER LEVEL:          0  ACCURACY: -nan
L1I TIMELY PREFETCHES:          0 LATE PREFETCHES: 0 DROPPED PREFETCHES: 0
L1I PREFETCHES SAME FILL-ORIGIN LEVEL: 0 DIFFERENT FILL-ORIGIN LEVEL: 0
L1I AVERAGE MISS LATENCY: 174.123 cycles
L1I RQ	ACCESS:   57172273	FORWARD:          0	MERGED:   17452491	TO_CACHE:   39719782

BTB TOTAL     ACCESS:   13350901  HIT:   11926181  MISS:    1424720  HIT %:    89.3287  MISS %:    10.6713   MPKI: 7.1236
BTB BRANCH_DIRECT_JUMP	ACCESS:    1424895  HIT:    1424857  MISS:         38
BTB BRANCH_INDIRECT	ACCESS:         16  HIT:         15  MISS:          1
BTB BRANCH_CONDITIONAL	ACCESS:    6226070  HIT:    6225943  MISS:        127
BTB BRANCH_DIRECT_CALL	ACCESS:    2849960  HIT:    2849915  MISS:         45
BTB BRANCH_INDIRECT_CALL	ACCESS:          0  HIT:          0  MISS:          0
BTB BRANCH_RETURN	ACCESS:    2849960  HIT:    1425451  MISS:    1424509
BTB BRANCH_OTHER ACCESS:          0  HIT:          0  MISS:          0

L2C TOTAL     ACCESS:    3218829  HIT:    2611839  MISS:     606990  HIT %:    81.1425  MISS %:    18.8575   MPKI: 3.03495
L2C LOAD      ACCESS:      67827  HIT:      35808  MISS:      32019  HIT %:    52.7931  MISS %:    47.2069   MPKI: 0.160095
L2C DATA LOAD MPKI: 0.159565
L2C INSTRUCTION LOAD MPKI: 0.00053
L2C RFO       ACCESS:     223125  HIT:          1  MISS:     223124  HIT %: 0.000448179  MISS %:    99.9996   MPKI: 1.11562
L2C PREFETCH  ACCESS:    2636779  HIT:    2291323  MISS:     345456  HIT %:    86.8986  MISS %:    13.1014   MPKI: 1.72728
L2C DATA PREFETCH MPKI: 1.72728
L2C INSTRUCTION PREFETCH MPKI: 0
L2C WRITEBACK ACCESS:     223144  HIT:     218881  MISS:       4263  HIT %:    98.0896  MISS %:    1.91043   MPKI: 0.021315
L2C LOAD TRANSLATION ACCESS:       7032  HIT:       5951  MISS:       1081  HIT %:    84.6274  MISS %:    15.3726   MPKI: 0.005405
L2C TRANSLATION FROM L1D PREFETCHER ACCESS:      60922  HIT:      59875  MISS:       1047  HIT %:    98.2814  MISS %:    1.71859   MPKI: 0.005235
L2C PREFETCH  REQUESTED:          0  ISSUED:          0  USEFUL:      36827  USELESS:     309065
L2C USEFUL LOAD PREFETCHES:      36827 PREFETCH ISSUED TO LOWER LEVEL:     365980  ACCURACY: 10.0626
L2C TIMELY PREFETCHES:      36827 LATE PREFETCHES: 20524 DROPPED PREFETCHES: 0
L2C PREFETCHES SAME FILL-ORIGIN LEVEL: 227752 DIFFERENT FILL-ORIGIN LEVEL: 0
L2C AVERAGE MISS LATENCY: 232.892 cycles
L2C RQ	ACCESS:     358906	FORWARD:          0	MERGED:          0	TO_CACHE:     358906
L2C WQ	ACCESS:     223144	FORWARD:          0	MERGED:          0	TO_CACHE:     223144
L2C PQ	ACCESS:    2996431	FORWARD:          0	MERGED:        392	TO_CACHE:    2996039

L2C Instructions Evicting Data 103
L2C Translations Evicting Data 2103
L2C Data Evicting Data 598278
L2C Instructions Evicting Instructions 0
L2C Translations Evicting Instructions 3
L2C Data Evicting Instructions 115
L2C Instructions Evicting Translations 3
L2C Translations Evicting Translations 22
L2C Data Evicting Translations 2100
L2C Dense regions hint from L2: 0
PSCL5 TOTAL     ACCESS:      67949  HIT:      67949  MISS:          0  HIT %:        100  MISS %:          0   MPKI: 0
PSCL5 LOAD TRANSLATION ACCESS:       7028  HIT:       7028  MISS:          0  HIT %:        100  MISS %:          0   MPKI: 0
PSCL5 TRANSLATION FROM L1D PREFETCHER ACCESS:      60921  HIT:      60921  MISS:          0  HIT %:        100  MISS %:          0   MPKI: 0
PSCL5 PREFETCH  REQUESTED:          0  ISSUED:          0  USEFUL:          0  USELESS:          0
PSCL5 USEFUL LOAD PREFETCHES:          0 PREFETCH ISSUED TO LOWER LEVEL:          0  ACCURACY: -nan
PSCL5 TIMELY PREFETCHES:          0 LATE PREFETCHES: 0 DROPPED PREFETCHES: 0
PSCL5 PREFETCHES SAME FILL-ORIGIN LEVEL: 0 DIFFERENT FILL-ORIGIN LEVEL: 0

PSCL4 TOTAL     ACCESS:      67949  HIT:      67949  MISS:          0  HIT %:        100  MISS %:          0   MPKI: 0
PSCL4 LOAD TRANSLATION ACCESS:       7028  HIT:       7028  MISS:          0  HIT %:        100  MISS %:          0   MPKI: 0
PSCL4 TRANSLATION FROM L1D PREFETCHER ACCESS:      60921  HIT:      60921  MISS:          0  HIT %:        100  MISS %:          0   MPKI: 0
PSCL4 PREFETCH  REQUESTED:          0  ISSUED:          0  USEFUL:          0  USELESS:          0
PSCL4 USEFUL LOAD PREFETCHES:          0 PREFETCH ISSUED TO LOWER LEVEL:          0  ACCURACY: -nan
PSCL4 TIMELY PREFETCHES:          0 LATE PREFETCHES: 0 DROPPED PREFETCHES: 0
PSCL4 PREFETCHES SAME FILL-ORIGIN LEVEL: 0 DIFFERENT FILL-ORIGIN LEVEL: 0

PSCL3 TOTAL     ACCESS:      67949  HIT:      67949  MISS:          0  HIT %:        100  MISS %:          0   MPKI: 0
PSCL3 LOAD TRANSLATION ACCESS:       7028  HIT:       7028  MISS:          0  HIT %:        100  MISS %:          0   MPKI: 0
PSCL3 TRANSLATION FROM L1D PREFETCHER ACCESS:      60921  HIT:      60921  MISS:          0  HIT %:        100  MISS %:          0   MPKI: 0
PSCL3 PREFETCH  REQUESTED:          0  ISSUED:          0  USEFUL:          0  USELESS:          0
PSCL3 USEFUL LOAD PREFETCHES:          0 PREFETCH ISSUED TO LOWER LEVEL:          0  ACCURACY: -nan
PSCL3 TIMELY PREFETCHES:          0 LATE PREFETCHES: 0 DROPPED PREFETCHES: 0
PSCL3 PREFETCHES SAME FILL-ORIGIN LEVEL: 0 DIFFERENT FILL-ORIGIN LEVEL: 0

PSCL2 TOTAL     ACCESS:      67905  HIT:      67889  MISS:         16  HIT %:    99.9764  MISS %:  0.0235623   MPKI: 8e-05
PSCL2 LOAD TRANSLATION ACCESS:       7029  HIT:       7013  MISS:         16  HIT %:    99.7724  MISS %:   0.227628   MPKI: 8e-05
PSCL2 TRANSLATION FROM L1D PREFETCHER ACCESS:      60876  HIT:      60876  MISS:          0  HIT %:        100  MISS %:          0   MPKI: 0
PSCL2 PREFETCH  REQUESTED:          0  ISSUED:          0  USEFUL:          0  USELESS:          0
PSCL2 USEFUL LOAD PREFETCHES:          0 PREFETCH ISSUED TO LOWER LEVEL:          0  ACCURACY: -nan
PSCL2 TIMELY PREFETCHES:          0 LATE PREFETCHES: 0 DROPPED PREFETCHES: 0
PSCL2 PREFETCHES SAME FILL-ORIGIN LEVEL: 0 DIFFERENT FILL-ORIGIN LEVEL: 0

LLC TOTAL     ACCESS:     826413  HIT:     145660  MISS:     680753  HIT %:    17.6256  MISS %:    82.3744   MPKI: 3.40376
LLC LOAD      ACCESS:      11495  HIT:          3  MISS:      11492  HIT %:  0.0260983  MISS %:    99.9739   MPKI: 0.05746
LLC RFO       ACCESS:     223124  HIT:       4455  MISS:     218669  HIT %:    1.99665  MISS %:    98.0034   MPKI: 1.09335
LLC PREFETCH  ACCESS:     365980  HIT:       9354  MISS:     356626  HIT %:    2.55588  MISS %:    97.4441   MPKI: 1.78313
LLC WRITEBACK ACCESS:     223686  HIT:     131837  MISS:      91849  HIT %:    58.9384  MISS %:    41.0616   MPKI: 0.459245
LLC LOAD TRANSLATION ACCESS:       1081  HIT:          4  MISS:       1077  HIT %:   0.370028  MISS %:      99.63   MPKI: 0.005385
LLC TRANSLATION FROM L1D PREFETCHER ACCESS:       1047  HIT:          7  MISS:       1040  HIT %:   0.668577  MISS %:    99.3314   MPKI: 0.0052
LLC PREFETCH  REQUESTED:          0  ISSUED:          0  USEFUL:          9  USELESS:     374106
LLC USEFUL LOAD PREFETCHES:          9 PREFETCH ISSUED TO LOWER LEVEL:     356626  ACCURACY: 0.00252365
LLC TIMELY PREFETCHES:          9 LATE PREFETCHES: 0 DROPPED PREFETCHES: 0
LLC PREFETCHES SAME FILL-ORIGIN LEVEL: 0 DIFFERENT FILL-ORIGIN LEVEL: 0
LLC AVERAGE MISS LATENCY: 185.708 cycles
LLC RQ	ACCESS:     236747	FORWARD:          0	MERGED:          0	TO_CACHE:     236747
LLC WQ	ACCESS:     223686	FORWARD:          0	MERGED:          0	TO_CACHE:     223686
LLC PQ	ACCESS:     365980	FORWARD:          0	MERGED:          0	TO_CACHE:     365980

LLC Dense regions hint to LLC: 0

RAW hits: 5673554
Loads Generated: 45770345
Loads sent to L1D: 40096791
Stores Generated: 21712370
Stores sent to L1D: 21712373
Major fault: 0 Minor fault: 7557
Allocated PAGES: 7557

DRAM Statistics
 CHANNEL 0
 RQ ROW_BUFFER_HIT:     146111  ROW_BUFFER_MISS:     442784
 DBUS_CONGESTED:         25
 WQ ROW_BUFFER_HIT:      29226  ROW_BUFFER_MISS:     170068  FULL:          0

 AVG_CONGESTED_CYCLE: 4
 All warmup complete: 2
Channel 0 Bank busy for read cycles: 0
Channel 0 Bank busy for write cycles: 0
Channel 0
Rank 0
0banks busy for read cycles: 288375227
0banks busy for write cycles: 64368
1banks busy for read cycles: 24098003
1banks busy for write cycles: 10002097
2banks busy for read cycles: 6746778
2banks busy for write cycles: 572791
3banks busy for read cycles: 1950752
3banks busy for write cycles: 209795
4banks busy for read cycles: 1582289
4banks busy for write cycles: 102493
5banks busy for read cycles: 1252910
5banks busy for write cycles: 60626
6banks busy for read cycles: 1027794
6banks busy for write cycles: 41743
7banks busy for read cycles: 627462
7banks busy for write cycles: 213089
8banks busy for read cycles: 1157397
8banks busy for write cycles: 2745369

CPU 0 Branch Prediction Accuracy: 99.9979% MPKI: 0.00143 Average ROB Occupancy at Mispredict: 18.7203
Branch types
NOT_BRANCH: 179514585 89.7573%
BRANCH_DIRECT_JUMP: 1424895 0.712448%
BRANCH_INDIRECT: 16 8e-06%
BRANCH_CONDITIONAL: 13360262 6.68013%
BRANCH_DIRECT_CALL: 2849960 1.42498%
BRANCH_INDIRECT_CALL: 0 0%
BRANCH_RETURN: 2849960 1.42498%
BRANCH_OTHER: 0 0%

DRAM PAGES: 1048576
Allocated PAGES: 7557
