 (TOTAL 523355 bits 511 Kbits) 
*** ChampSim Multicore Out-of-Order Simulator ***

Warmup Instructions: 50000000
Simulation Instructions: 200000000
Number of CPUs: 1
LLC sets: 2048
LLC ways: 16
Off-chip DRAM Size: 4096 MB Channels: 1 Width: 64-bit Data Rate: 6400 MT/s
argv[0]: ./ChampSim/Berti/bin/tagescl-no-vberti-no-no-no-no-no-lru-lru-lru-srrip-drrip-lru-lru-lru-1core-no
argv[1]: -warmup_instructions
argv[2]: 50000000
argv[3]: -simulation_instructions
argv[4]: 200000000
argv[5]: -traces
argv[6]: traces/spec2k17_ten/654.roms_s-842B.champsimtrace.xz
CPU 0 runs traces/spec2k17_ten/654.roms_s-842B.champsimtrace.xz
.xz
CPU 0 Tage branch predictor
BTB has LRU replacement policy
ITLB has LRU replacement policy
DTLB has LRU replacement policy
STLB has LRU replacement policy
L1I has LRU replacement policy
History Sets: 8
History Ways: 16
BERTI Size: 16
BERTI Stride Size: 16
L1D has LRU replacement policy
Initialize SRRIP state for L2C
Initialize DRRIP state for LLC
Heartbeat CPU 0 instructions: 10000000 cycles: 2692835 heartbeat IPC: 3.71356 cumulative IPC: 3.71356 (Simulation time: 0 hr 5 min 54 sec) 
Heartbeat CPU 0 instructions: 20000002 cycles: 5419190 heartbeat IPC: 3.6679 cumulative IPC: 3.69059 (Simulation time: 0 hr 12 min 21 sec) 
Heartbeat CPU 0 instructions: 30000002 cycles: 8094671 heartbeat IPC: 3.73765 cumulative IPC: 3.70614 (Simulation time: 0 hr 18 min 58 sec) 
Heartbeat CPU 0 instructions: 40000000 cycles: 10826736 heartbeat IPC: 3.66023 cumulative IPC: 3.69456 (Simulation time: 0 hr 24 min 41 sec) 
Heartbeat CPU 0 instructions: 50000003 cycles: 13684853 heartbeat IPC: 3.49881 cumulative IPC: 3.65367 (Simulation time: 0 hr 30 min 4 sec) 

Warmup complete CPU 0 instructions: 50000003 cycles: 13684853 (Simulation time: 0 hr 30 min 4 sec) 

Heartbeat CPU 0 instructions: 60000000 cycles: 27742276 heartbeat IPC: 0.711368 cumulative IPC: 0.711368 (Simulation time: 0 hr 35 min 20 sec) 
Heartbeat CPU 0 instructions: 70000001 cycles: 41748040 heartbeat IPC: 0.713992 cumulative IPC: 0.712677 (Simulation time: 0 hr 39 min 35 sec) 
Heartbeat CPU 0 instructions: 80000000 cycles: 55798269 heartbeat IPC: 0.711732 cumulative IPC: 0.712362 (Simulation time: 0 hr 44 min 19 sec) 
Heartbeat CPU 0 instructions: 90000002 cycles: 69900215 heartbeat IPC: 0.709122 cumulative IPC: 0.711549 (Simulation time: 0 hr 48 min 25 sec) 
Heartbeat CPU 0 instructions: 100000002 cycles: 83824120 heartbeat IPC: 0.718189 cumulative IPC: 0.712867 (Simulation time: 0 hr 52 min 16 sec) 
Heartbeat CPU 0 instructions: 110000000 cycles: 98003931 heartbeat IPC: 0.705228 cumulative IPC: 0.711583 (Simulation time: 0 hr 56 min 10 sec) 
Heartbeat CPU 0 instructions: 120000003 cycles: 111962470 heartbeat IPC: 0.716408 cumulative IPC: 0.712268 (Simulation time: 1 hr 0 min 1 sec) 
Heartbeat CPU 0 instructions: 130000003 cycles: 125848814 heartbeat IPC: 0.720132 cumulative IPC: 0.713242 (Simulation time: 1 hr 3 min 22 sec) 
Heartbeat CPU 0 instructions: 140000000 cycles: 139976189 heartbeat IPC: 0.707845 cumulative IPC: 0.712638 (Simulation time: 1 hr 6 min 31 sec) 
Heartbeat CPU 0 instructions: 150000000 cycles: 154152910 heartbeat IPC: 0.705382 cumulative IPC: 0.711906 (Simulation time: 1 hr 9 min 10 sec) 
Heartbeat CPU 0 instructions: 160000000 cycles: 168109999 heartbeat IPC: 0.716482 cumulative IPC: 0.712319 (Simulation time: 1 hr 10 min 50 sec) 
Heartbeat CPU 0 instructions: 170000000 cycles: 182156110 heartbeat IPC: 0.711941 cumulative IPC: 0.712288 (Simulation time: 1 hr 12 min 43 sec) 
Heartbeat CPU 0 instructions: 180000003 cycles: 196361646 heartbeat IPC: 0.703951 cumulative IPC: 0.711639 (Simulation time: 1 hr 14 min 55 sec) 
Heartbeat CPU 0 instructions: 190000000 cycles: 210489132 heartbeat IPC: 0.70784 cumulative IPC: 0.711367 (Simulation time: 1 hr 16 min 50 sec) 
Heartbeat CPU 0 instructions: 200000003 cycles: 224528823 heartbeat IPC: 0.712267 cumulative IPC: 0.711427 (Simulation time: 1 hr 18 min 25 sec) 
Heartbeat CPU 0 instructions: 210000002 cycles: 238432253 heartbeat IPC: 0.719247 cumulative IPC: 0.71191 (Simulation time: 1 hr 19 min 45 sec) 
Heartbeat CPU 0 instructions: 220000000 cycles: 252547183 heartbeat IPC: 0.70847 cumulative IPC: 0.711707 (Simulation time: 1 hr 20 min 54 sec) 
Heartbeat CPU 0 instructions: 230000001 cycles: 266426153 heartbeat IPC: 0.720515 cumulative IPC: 0.712191 (Simulation time: 1 hr 21 min 54 sec) 
Heartbeat CPU 0 instructions: 240000003 cycles: 280515548 heartbeat IPC: 0.709754 cumulative IPC: 0.712062 (Simulation time: 1 hr 22 min 39 sec) 
Heartbeat CPU 0 instructions: 250000001 cycles: 294587439 heartbeat IPC: 0.710636 cumulative IPC: 0.711991 (Simulation time: 1 hr 23 min 15 sec) 
Finished CPU 0 instructions: 200000002 cycles: 280902587 cumulative IPC: 0.711991 (Simulation time: 1 hr 23 min 15 sec) 

ChampSim completed all CPUs

Region of Interest Statistics

CPU 0 cumulative IPC: 0.711991 instructions: 200000002 cycles: 280902587
ITLB TOTAL     ACCESS:   30178550  HIT:   30178550  MISS:          0  HIT %:        100  MISS %:          0   MPKI: 0
ITLB LOAD TRANSLATION ACCESS:   30178550  HIT:   30178550  MISS:          0  HIT %:        100  MISS %:          0   MPKI: 0
ITLB PREFETCH  REQUESTED:          0  ISSUED:          0  USEFUL:          0  USELESS:          0
ITLB USEFUL LOAD PREFETCHES:          0 PREFETCH ISSUED TO LOWER LEVEL:          0  ACCURACY: -nan
ITLB TIMELY PREFETCHES:          0 LATE PREFETCHES: 0 DROPPED PREFETCHES: 0
ITLB PREFETCHES SAME FILL-ORIGIN LEVEL: 0 DIFFERENT FILL-ORIGIN LEVEL: 0
ITLB AVERAGE MISS LATENCY: -nan cycles
ITLB RQ	ACCESS:   37721755	FORWARD:          0	MERGED:    7543204	TO_CACHE:   30178551

DTLB TOTAL     ACCESS:   31516642  HIT:   31515945  MISS:        697  HIT %:    99.9978  MISS %: 0.00221153   MPKI: 0.003485
DTLB LOAD TRANSLATION ACCESS:   31516642  HIT:   31515945  MISS:        697  HIT %:    99.9978  MISS %: 0.00221153   MPKI: 0.003485
DTLB PREFETCH  REQUESTED:          0  ISSUED:          0  USEFUL:          0  USELESS:          0
DTLB USEFUL LOAD PREFETCHES:          0 PREFETCH ISSUED TO LOWER LEVEL:          0  ACCURACY: -nan
DTLB TIMELY PREFETCHES:          0 LATE PREFETCHES: 0 DROPPED PREFETCHES: 0
DTLB PREFETCHES SAME FILL-ORIGIN LEVEL: 0 DIFFERENT FILL-ORIGIN LEVEL: 0
DTLB AVERAGE MISS LATENCY: 120.518 cycles
DTLB RQ	ACCESS:   37169479	FORWARD:          0	MERGED:    5652788	TO_CACHE:   31516691

STLB TOTAL     ACCESS:     167130  HIT:     166508  MISS:        622  HIT %:    99.6278  MISS %:   0.372165   MPKI: 0.00311
STLB LOAD TRANSLATION ACCESS:        697  HIT:         75  MISS:        622  HIT %:    10.7604  MISS %:    89.2396   MPKI: 0.00311
STLB TRANSLATION FROM L1D PREFETCHER ACCESS:     166433  HIT:     166433  MISS:          0  HIT %:        100  MISS %:          0   MPKI: 0
STLB PREFETCH  REQUESTED:          0  ISSUED:          0  USEFUL:          0  USELESS:          0
STLB USEFUL LOAD PREFETCHES:          0 PREFETCH ISSUED TO LOWER LEVEL:          0  ACCURACY: -nan
STLB TIMELY PREFETCHES:          0 LATE PREFETCHES: 39 DROPPED PREFETCHES: 28500
STLB PREFETCHES SAME FILL-ORIGIN LEVEL: 0 DIFFERENT FILL-ORIGIN LEVEL: 0
STLB AVERAGE MISS LATENCY: 125.471 cycles
STLB RQ	ACCESS:    1255174	FORWARD:          0	MERGED:    1056879	TO_CACHE:     198295

STLB Hit, L1D data hit: 0
STLB Hit, L2C data hit: 0
STLB Hit, LLC data hit: 0
STLB Hit, LLC data miss: 0
STLB STLB hints to L2: 0
L1D TOTAL     ACCESS:   38094642  HIT:   38064266  MISS:      30376  HIT %:    99.9203  MISS %:  0.0797382   MPKI: 0.15188
L1D LOAD      ACCESS:   22435548  HIT:   22434700  MISS:        848  HIT %:    99.9962  MISS %: 0.00377972   MPKI: 0.00424
L1D RFO       ACCESS:   14732397  HIT:   14720516  MISS:      11881  HIT %:    99.9194  MISS %:  0.0806454   MPKI: 0.059405
L1D PREFETCH  ACCESS:     926697  HIT:     909050  MISS:      17647  HIT %:    98.0957  MISS %:    1.90429   MPKI: 0.088235
L1D PREFETCH  REQUESTED:    2626738  ISSUED:    2626738  USEFUL:      16499  USELESS:       1178
L1D USEFUL LOAD PREFETCHES:      16499 PREFETCH ISSUED TO LOWER LEVEL:     241874  ACCURACY: 6.82132
L1D TIMELY PREFETCHES:      16499 LATE PREFETCHES: 89 DROPPED PREFETCHES: 89599
L1D PREFETCHES SAME FILL-ORIGIN LEVEL: 17736 DIFFERENT FILL-ORIGIN LEVEL: 224138
L1D AVERAGE MISS LATENCY: 82.721 cycles
L1D RQ	ACCESS:   31544799	FORWARD:          0	MERGED:    8793448	TO_CACHE:   22436510
L1D WQ	ACCESS:   14910203	FORWARD:     314841	MERGED:     177234	TO_CACHE:   14732969
L1D PQ	ACCESS:    1372261	FORWARD:          0	MERGED:     117784	TO_CACHE:    1254477

L1D UNIQUE REGIONS ACCESSED: 0
L1D REGIONS CONFLICTS: 0
L1D Cross Page Prefetch Requests: 155720
L1D Same Page Prefetch Requests: 1541832
L1D ROI Sum of L1D PQ occupancy: 20424755
L1D PREFETCHES PUSHED FROM L2C: 0
L1I TOTAL     ACCESS:   37721753  HIT:   37721753  MISS:          0  HIT %:        100  MISS %:          0   MPKI: 0
L1I LOAD      ACCESS:   37721753  HIT:   37721753  MISS:          0  HIT %:        100  MISS %:          0   MPKI: 0
L1I PREFETCH  REQUESTED:          0  ISSUED:          0  USEFUL:          0  USELESS:          0
L1I USEFUL LOAD PREFETCHES:          0 PREFETCH ISSUED TO LOWER LEVEL:          0  ACCURACY: -nan
L1I TIMELY PREFETCHES:          0 LATE PREFETCHES: 0 DROPPED PREFETCHES: 0
L1I PREFETCHES SAME FILL-ORIGIN LEVEL: 0 DIFFERENT FILL-ORIGIN LEVEL: 0
L1I AVERAGE MISS LATENCY: -nan cycles
L1I RQ	ACCESS:   52484822	FORWARD:          0	MERGED:   14763067	TO_CACHE:   37721755

BTB TOTAL     ACCESS:   26011261  HIT:   25138873  MISS:     872388  HIT %:    96.6461  MISS %:    3.35389   MPKI: 4.36194
BTB BRANCH_DIRECT_JUMP	ACCESS:    3269630  HIT:    3269599  MISS:         31
BTB BRANCH_INDIRECT	ACCESS:     123834  HIT:     123833  MISS:          1
BTB BRANCH_CONDITIONAL	ACCESS:   19854327  HIT:   19854238  MISS:         89
BTB BRANCH_DIRECT_CALL	ACCESS:    1381737  HIT:    1381694  MISS:         43
BTB BRANCH_INDIRECT_CALL	ACCESS:          0  HIT:          0  MISS:          0
BTB BRANCH_RETURN	ACCESS:    1381733  HIT:     509509  MISS:     872224
BTB BRANCH_OTHER ACCESS:          0  HIT:          0  MISS:          0

L2C TOTAL     ACCESS:     282814  HIT:     252128  MISS:      30686  HIT %:    89.1498  MISS %:    10.8502   MPKI: 0.15343
L2C LOAD      ACCESS:        759  HIT:        263  MISS:        496  HIT %:    34.6509  MISS %:    65.3491   MPKI: 0.00248
L2C DATA LOAD MPKI: 0.00248
L2C INSTRUCTION LOAD MPKI: 0
L2C RFO       ACCESS:      11881  HIT:        493  MISS:      11388  HIT %:    4.14948  MISS %:    95.8505   MPKI: 0.05694
L2C PREFETCH  ACCESS:     229163  HIT:     210654  MISS:      18509  HIT %:    91.9232  MISS %:    8.07678   MPKI: 0.092545
L2C DATA PREFETCH MPKI: 0.092545
L2C INSTRUCTION PREFETCH MPKI: 0
L2C WRITEBACK ACCESS:      11850  HIT:      11649  MISS:        201  HIT %:    98.3038  MISS %:     1.6962   MPKI: 0.001005
L2C LOAD TRANSLATION ACCESS:        622  HIT:        581  MISS:         41  HIT %:    93.4084  MISS %:    6.59164   MPKI: 0.000205
L2C TRANSLATION FROM L1D PREFETCHER ACCESS:      28539  HIT:      28488  MISS:         51  HIT %:    99.8213  MISS %:   0.178703   MPKI: 0.000255
L2C PREFETCH  REQUESTED:          0  ISSUED:          0  USEFUL:        154  USELESS:      17225
L2C USEFUL LOAD PREFETCHES:        154 PREFETCH ISSUED TO LOWER LEVEL:      18509  ACCURACY: 0.832028
L2C TIMELY PREFETCHES:        154 LATE PREFETCHES: 0 DROPPED PREFETCHES: 0
L2C PREFETCHES SAME FILL-ORIGIN LEVEL: 13035 DIFFERENT FILL-ORIGIN LEVEL: 0
L2C AVERAGE MISS LATENCY: 118.012 cycles
L2C RQ	ACCESS:      41801	FORWARD:          0	MERGED:          0	TO_CACHE:      41801
L2C WQ	ACCESS:      11850	FORWARD:          0	MERGED:          0	TO_CACHE:      11850
L2C PQ	ACCESS:     241874	FORWARD:          0	MERGED:          0	TO_CACHE:     241874

L2C Instructions Evicting Data 0
L2C Translations Evicting Data 91
L2C Data Evicting Data 29329
L2C Instructions Evicting Instructions 0
L2C Translations Evicting Instructions 0
L2C Data Evicting Instructions 65
L2C Instructions Evicting Translations 0
L2C Translations Evicting Translations 0
L2C Data Evicting Translations 82
L2C Dense regions hint from L2: 0
PSCL5 TOTAL     ACCESS:      29161  HIT:      29161  MISS:          0  HIT %:        100  MISS %:          0   MPKI: 0
PSCL5 LOAD TRANSLATION ACCESS:        622  HIT:        622  MISS:          0  HIT %:        100  MISS %:          0   MPKI: 0
PSCL5 TRANSLATION FROM L1D PREFETCHER ACCESS:      28539  HIT:      28539  MISS:          0  HIT %:        100  MISS %:          0   MPKI: 0
PSCL5 PREFETCH  REQUESTED:          0  ISSUED:          0  USEFUL:          0  USELESS:          0
PSCL5 USEFUL LOAD PREFETCHES:          0 PREFETCH ISSUED TO LOWER LEVEL:          0  ACCURACY: -nan
PSCL5 TIMELY PREFETCHES:          0 LATE PREFETCHES: 0 DROPPED PREFETCHES: 0
PSCL5 PREFETCHES SAME FILL-ORIGIN LEVEL: 0 DIFFERENT FILL-ORIGIN LEVEL: 0

PSCL4 TOTAL     ACCESS:      29161  HIT:      29161  MISS:          0  HIT %:        100  MISS %:          0   MPKI: 0
PSCL4 LOAD TRANSLATION ACCESS:        622  HIT:        622  MISS:          0  HIT %:        100  MISS %:          0   MPKI: 0
PSCL4 TRANSLATION FROM L1D PREFETCHER ACCESS:      28539  HIT:      28539  MISS:          0  HIT %:        100  MISS %:          0   MPKI: 0
PSCL4 PREFETCH  REQUESTED:          0  ISSUED:          0  USEFUL:          0  USELESS:          0
PSCL4 USEFUL LOAD PREFETCHES:          0 PREFETCH ISSUED TO LOWER LEVEL:          0  ACCURACY: -nan
PSCL4 TIMELY PREFETCHES:          0 LATE PREFETCHES: 0 DROPPED PREFETCHES: 0
PSCL4 PREFETCHES SAME FILL-ORIGIN LEVEL: 0 DIFFERENT FILL-ORIGIN LEVEL: 0

PSCL3 TOTAL     ACCESS:      29161  HIT:      29161  MISS:          0  HIT %:        100  MISS %:          0   MPKI: 0
PSCL3 LOAD TRANSLATION ACCESS:        622  HIT:        622  MISS:          0  HIT %:        100  MISS %:          0   MPKI: 0
PSCL3 TRANSLATION FROM L1D PREFETCHER ACCESS:      28539  HIT:      28539  MISS:          0  HIT %:        100  MISS %:          0   MPKI: 0
PSCL3 PREFETCH  REQUESTED:          0  ISSUED:          0  USEFUL:          0  USELESS:          0
PSCL3 USEFUL LOAD PREFETCHES:          0 PREFETCH ISSUED TO LOWER LEVEL:          0  ACCURACY: -nan
PSCL3 TIMELY PREFETCHES:          0 LATE PREFETCHES: 0 DROPPED PREFETCHES: 0
PSCL3 PREFETCHES SAME FILL-ORIGIN LEVEL: 0 DIFFERENT FILL-ORIGIN LEVEL: 0

PSCL2 TOTAL     ACCESS:      29103  HIT:      29102  MISS:          1  HIT %:    99.9966  MISS %: 0.00343607   MPKI: 5e-06
PSCL2 LOAD TRANSLATION ACCESS:        622  HIT:        621  MISS:          1  HIT %:    99.8392  MISS %:   0.160772   MPKI: 5e-06
PSCL2 TRANSLATION FROM L1D PREFETCHER ACCESS:      28481  HIT:      28481  MISS:          0  HIT %:        100  MISS %:          0   MPKI: 0
PSCL2 PREFETCH  REQUESTED:          0  ISSUED:          0  USEFUL:          0  USELESS:          0
PSCL2 USEFUL LOAD PREFETCHES:          0 PREFETCH ISSUED TO LOWER LEVEL:          0  ACCURACY: -nan
PSCL2 TIMELY PREFETCHES:          0 LATE PREFETCHES: 0 DROPPED PREFETCHES: 0
PSCL2 PREFETCHES SAME FILL-ORIGIN LEVEL: 0 DIFFERENT FILL-ORIGIN LEVEL: 0

LLC TOTAL     ACCESS:      42029  HIT:      11399  MISS:      30630  HIT %:    27.1217  MISS %:    72.8783   MPKI: 0.15315
LLC LOAD      ACCESS:        496  HIT:          8  MISS:        488  HIT %:     1.6129  MISS %:    98.3871   MPKI: 0.00244
LLC RFO       ACCESS:      11388  HIT:         19  MISS:      11369  HIT %:   0.166842  MISS %:    99.8332   MPKI: 0.056845
LLC PREFETCH  ACCESS:      18509  HIT:          0  MISS:      18509  HIT %:          0  MISS %:        100   MPKI: 0.092545
LLC WRITEBACK ACCESS:      11544  HIT:      11371  MISS:        173  HIT %:    98.5014  MISS %:    1.49861   MPKI: 0.000865
LLC LOAD TRANSLATION ACCESS:         41  HIT:          1  MISS:         40  HIT %:    2.43902  MISS %:     97.561   MPKI: 0.0002
LLC TRANSLATION FROM L1D PREFETCHER ACCESS:         51  HIT:          0  MISS:         51  HIT %:          0  MISS %:        100   MPKI: 0.000255
LLC PREFETCH  REQUESTED:          0  ISSUED:          0  USEFUL:          0  USELESS:       5432
LLC USEFUL LOAD PREFETCHES:          0 PREFETCH ISSUED TO LOWER LEVEL:      18509  ACCURACY: 0
LLC TIMELY PREFETCHES:          0 LATE PREFETCHES: 0 DROPPED PREFETCHES: 0
LLC PREFETCHES SAME FILL-ORIGIN LEVEL: 0 DIFFERENT FILL-ORIGIN LEVEL: 0
LLC AVERAGE MISS LATENCY: 88.322 cycles
LLC RQ	ACCESS:      11976	FORWARD:          0	MERGED:          0	TO_CACHE:      11976
LLC WQ	ACCESS:      11544	FORWARD:          0	MERGED:          0	TO_CACHE:      11544
LLC PQ	ACCESS:      18509	FORWARD:          0	MERGED:          0	TO_CACHE:      18509

LLC Dense regions hint to LLC: 0

RAW hits: 1909824
Loads Generated: 33454623
Loads sent to L1D: 31544799
Stores Generated: 14910206
Stores sent to L1D: 14910203
Major fault: 0 Minor fault: 919
Allocated PAGES: 919

DRAM Statistics
 CHANNEL 0
 RQ ROW_BUFFER_HIT:      25293  ROW_BUFFER_MISS:       5164
 DBUS_CONGESTED:          0
 WQ ROW_BUFFER_HIT:        747  ROW_BUFFER_MISS:       2451  FULL:          0

 AVG_CONGESTED_CYCLE: -
 All warmup complete: 2
Channel 0 Bank busy for read cycles: 0
Channel 0 Bank busy for write cycles: 0
Channel 0
Rank 0
0banks busy for read cycles: 278796386
0banks busy for write cycles: 2045
1banks busy for read cycles: 1583188
1banks busy for write cycles: 327168
2banks busy for read cycles: 103741
2banks busy for write cycles: 25688
3banks busy for read cycles: 6151
3banks busy for write cycles: 8748
4banks busy for read cycles: 2982
4banks busy for write cycles: 4169
5banks busy for read cycles: 3227
5banks busy for write cycles: 1606
6banks busy for read cycles: 2455
6banks busy for write cycles: 1750
7banks busy for read cycles: 2602
7banks busy for write cycles: 2360
8banks busy for read cycles: 21140
8banks busy for write cycles: 7182

CPU 0 Branch Prediction Accuracy: 99.9998% MPKI: 0.00025 Average ROB Occupancy at Mispredict: 49.1
Branch types
NOT_BRANCH: 167116679 83.5583%
BRANCH_DIRECT_JUMP: 3269630 1.63481%
BRANCH_INDIRECT: 123834 0.061917%
BRANCH_CONDITIONAL: 26726130 13.3631%
BRANCH_DIRECT_CALL: 1381737 0.690868%
BRANCH_INDIRECT_CALL: 0 0%
BRANCH_RETURN: 1381733 0.690866%
BRANCH_OTHER: 0 0%

DRAM PAGES: 1048576
Allocated PAGES: 919
