 (TOTAL 67349)
 
*** ChampSim Multicore Out-of-Order Simulator ***

Warmup Instructions: 50000000
Simulation Instructions: 200000000
Number of CPUs: 1
LLC sets: 2048
LLC ways: 16
Off-chip DRAM Size: 4096 MB Channels: 1 Width: 64-bit Data Rate: 6400 MT/s
argv[0]: ./ChampSim/Berti/bin/tagescl8kb-no-vberti-no-no-no-no-no-lru-lru-lru-srrip-drrip-lru-lru-lru-1core-no
argv[1]: -warmup_instructions
argv[2]: 50000000
argv[3]: -simulation_instructions
argv[4]: 200000000
argv[5]: -traces
argv[6]: traces/spec2k17_ten/625.x264_s-12B.champsimtrace.xz
CPU 0 runs traces/spec2k17_ten/625.x264_s-12B.champsimtrace.xz
.xz
CPU 0 Tage branch predictor
BTB has LRU replacement policy
ITLB has LRU replacement policy
DTLB has LRU replacement policy
STLB has LRU replacement policy
L1I has LRU replacement policy
History Sets: 8
History Ways: 16
BERTI Size: 16
BERTI Stride Size: 16
L1D has LRU replacement policy
Initialize SRRIP state for L2C
Initialize DRRIP state for LLC
Heartbeat CPU 0 instructions: 10000001 cycles: 2703637 heartbeat IPC: 3.69872 cumulative IPC: 3.69872 (Simulation time: 0 hr 4 min 20 sec) 
Heartbeat CPU 0 instructions: 20000001 cycles: 5417862 heartbeat IPC: 3.68429 cumulative IPC: 3.69149 (Simulation time: 0 hr 8 min 33 sec) 
Heartbeat CPU 0 instructions: 30000002 cycles: 8131592 heartbeat IPC: 3.68497 cumulative IPC: 3.68931 (Simulation time: 0 hr 11 min 55 sec) 
Heartbeat CPU 0 instructions: 40000000 cycles: 10844922 heartbeat IPC: 3.68551 cumulative IPC: 3.68836 (Simulation time: 0 hr 15 min 38 sec) 
Heartbeat CPU 0 instructions: 50000001 cycles: 13558728 heartbeat IPC: 3.68486 cumulative IPC: 3.68766 (Simulation time: 0 hr 19 min 4 sec) 

Warmup complete CPU 0 instructions: 50000001 cycles: 13558728 (Simulation time: 0 hr 19 min 4 sec) 

Heartbeat CPU 0 instructions: 60000000 cycles: 25986240 heartbeat IPC: 0.804666 cumulative IPC: 0.804666 (Simulation time: 0 hr 22 min 43 sec) 
Heartbeat CPU 0 instructions: 70000000 cycles: 38681092 heartbeat IPC: 0.787721 cumulative IPC: 0.796103 (Simulation time: 0 hr 26 min 5 sec) 
Heartbeat CPU 0 instructions: 80000002 cycles: 51283379 heartbeat IPC: 0.793507 cumulative IPC: 0.795236 (Simulation time: 0 hr 30 min 12 sec) 
Heartbeat CPU 0 instructions: 90000000 cycles: 63885972 heartbeat IPC: 0.793487 cumulative IPC: 0.794798 (Simulation time: 0 hr 33 min 11 sec) 
Heartbeat CPU 0 instructions: 100000001 cycles: 76558466 heartbeat IPC: 0.789111 cumulative IPC: 0.793654 (Simulation time: 0 hr 36 min 1 sec) 
Heartbeat CPU 0 instructions: 110000000 cycles: 89271073 heartbeat IPC: 0.786621 cumulative IPC: 0.792473 (Simulation time: 0 hr 38 min 42 sec) 
Heartbeat CPU 0 instructions: 120000000 cycles: 101938551 heartbeat IPC: 0.789423 cumulative IPC: 0.792036 (Simulation time: 0 hr 42 min 36 sec) 
Heartbeat CPU 0 instructions: 130000003 cycles: 114680577 heartbeat IPC: 0.784805 cumulative IPC: 0.791125 (Simulation time: 0 hr 47 min 40 sec) 
Heartbeat CPU 0 instructions: 140000002 cycles: 127360532 heartbeat IPC: 0.788646 cumulative IPC: 0.790849 (Simulation time: 0 hr 52 min 9 sec) 
Heartbeat CPU 0 instructions: 150000001 cycles: 139979652 heartbeat IPC: 0.792448 cumulative IPC: 0.791008 (Simulation time: 0 hr 55 min 30 sec) 
Heartbeat CPU 0 instructions: 160000001 cycles: 152676618 heartbeat IPC: 0.78759 cumulative IPC: 0.790696 (Simulation time: 0 hr 59 min 36 sec) 
Heartbeat CPU 0 instructions: 170000001 cycles: 165518888 heartbeat IPC: 0.778679 cumulative IPC: 0.789681 (Simulation time: 1 hr 3 min 22 sec) 
Heartbeat CPU 0 instructions: 180000003 cycles: 178382301 heartbeat IPC: 0.777399 cumulative IPC: 0.788722 (Simulation time: 1 hr 6 min 48 sec) 
Heartbeat CPU 0 instructions: 190000000 cycles: 190963001 heartbeat IPC: 0.794868 cumulative IPC: 0.789158 (Simulation time: 1 hr 11 min 48 sec) 
Heartbeat CPU 0 instructions: 200000001 cycles: 203765861 heartbeat IPC: 0.781076 cumulative IPC: 0.788614 (Simulation time: 1 hr 14 min 29 sec) 
Heartbeat CPU 0 instructions: 210000000 cycles: 216568151 heartbeat IPC: 0.78111 cumulative IPC: 0.788141 (Simulation time: 1 hr 17 min 47 sec) 
Heartbeat CPU 0 instructions: 220000000 cycles: 229366369 heartbeat IPC: 0.781359 cumulative IPC: 0.787739 (Simulation time: 1 hr 22 min 42 sec) 
Heartbeat CPU 0 instructions: 230000000 cycles: 242166503 heartbeat IPC: 0.781242 cumulative IPC: 0.787375 (Simulation time: 1 hr 26 min 29 sec) 
Heartbeat CPU 0 instructions: 240000002 cycles: 254699321 heartbeat IPC: 0.797905 cumulative IPC: 0.787922 (Simulation time: 1 hr 30 min 5 sec) 
Heartbeat CPU 0 instructions: 250000001 cycles: 267495755 heartbeat IPC: 0.781468 cumulative IPC: 0.787597 (Simulation time: 1 hr 32 min 37 sec) 
Finished CPU 0 instructions: 200000000 cycles: 253937027 cumulative IPC: 0.787597 (Simulation time: 1 hr 32 min 37 sec) 

ChampSim completed all CPUs

Region of Interest Statistics

CPU 0 cumulative IPC: 0.787597 instructions: 200000000 cycles: 253937027
ITLB TOTAL     ACCESS:   27896653  HIT:   27896650  MISS:          3  HIT %:        100  MISS %: 1.0754e-05   MPKI: 1.5e-05
ITLB LOAD TRANSLATION ACCESS:   27896653  HIT:   27896650  MISS:          3  HIT %:        100  MISS %: 1.0754e-05   MPKI: 1.5e-05
ITLB PREFETCH  REQUESTED:          0  ISSUED:          0  USEFUL:          0  USELESS:          0
ITLB USEFUL LOAD PREFETCHES:          0 PREFETCH ISSUED TO LOWER LEVEL:          0  ACCURACY: -nan
ITLB TIMELY PREFETCHES:          0 LATE PREFETCHES: 0 DROPPED PREFETCHES: 0
ITLB PREFETCHES SAME FILL-ORIGIN LEVEL: 0 DIFFERENT FILL-ORIGIN LEVEL: 0
ITLB AVERAGE MISS LATENCY: 206.667 cycles
ITLB RQ	ACCESS:   35072758	FORWARD:          0	MERGED:    7176106	TO_CACHE:   27896652

DTLB TOTAL     ACCESS:   26477611  HIT:   26432929  MISS:      44682  HIT %:    99.8312  MISS %:   0.168754   MPKI: 0.22341
DTLB LOAD TRANSLATION ACCESS:   26477611  HIT:   26432929  MISS:      44682  HIT %:    99.8312  MISS %:   0.168754   MPKI: 0.22341
DTLB PREFETCH  REQUESTED:          0  ISSUED:          0  USEFUL:          0  USELESS:          0
DTLB USEFUL LOAD PREFETCHES:          0 PREFETCH ISSUED TO LOWER LEVEL:          0  ACCURACY: -nan
DTLB TIMELY PREFETCHES:          0 LATE PREFETCHES: 0 DROPPED PREFETCHES: 0
DTLB PREFETCHES SAME FILL-ORIGIN LEVEL: 0 DIFFERENT FILL-ORIGIN LEVEL: 0
DTLB AVERAGE MISS LATENCY: 11.2557 cycles
DTLB RQ	ACCESS:   31758495	FORWARD:          0	MERGED:    5273902	TO_CACHE:   26484593

STLB TOTAL     ACCESS:    5539350  HIT:    5538665  MISS:        685  HIT %:    99.9876  MISS %:  0.0123661   MPKI: 0.003425
STLB LOAD TRANSLATION ACCESS:      44685  HIT:      44000  MISS:        685  HIT %:     98.467  MISS %:    1.53295   MPKI: 0.003425
STLB TRANSLATION FROM L1D PREFETCHER ACCESS:    5494665  HIT:    5494665  MISS:          0  HIT %:        100  MISS %:          0   MPKI: 0
STLB PREFETCH  REQUESTED:          0  ISSUED:          0  USEFUL:          0  USELESS:          0
STLB USEFUL LOAD PREFETCHES:          0 PREFETCH ISSUED TO LOWER LEVEL:          0  ACCURACY: -nan
STLB TIMELY PREFETCHES:          0 LATE PREFETCHES: 7 DROPPED PREFETCHES: 48071
STLB PREFETCHES SAME FILL-ORIGIN LEVEL: 0 DIFFERENT FILL-ORIGIN LEVEL: 0
STLB AVERAGE MISS LATENCY: 147.235 cycles
STLB RQ	ACCESS:   13660602	FORWARD:          0	MERGED:    8069380	TO_CACHE:    5591222

STLB Hit, L1D data hit: 0
STLB Hit, L2C data hit: 0
STLB Hit, LLC data hit: 0
STLB Hit, LLC data miss: 0
STLB STLB hints to L2: 0
L1D TOTAL     ACCESS:   43851656  HIT:   43764292  MISS:      87364  HIT %:    99.8008  MISS %:   0.199226   MPKI: 0.43682
L1D LOAD      ACCESS:   18677650  HIT:   18644121  MISS:      33529  HIT %:    99.8205  MISS %:   0.179514   MPKI: 0.167645
L1D RFO       ACCESS:   13068335  HIT:   13065884  MISS:       2451  HIT %:    99.9812  MISS %:  0.0187553   MPKI: 0.012255
L1D PREFETCH  ACCESS:   12105671  HIT:   12054287  MISS:      51384  HIT %:    99.5755  MISS %:   0.424462   MPKI: 0.25692
L1D PREFETCH  REQUESTED:   30265148  ISSUED:   29916289  USEFUL:      42925  USELESS:       8383
L1D USEFUL LOAD PREFETCHES:      42925 PREFETCH ISSUED TO LOWER LEVEL:    1440953  ACCURACY: 2.97893
L1D TIMELY PREFETCHES:      42925 LATE PREFETCHES: 2223 DROPPED PREFETCHES: 116045
L1D PREFETCHES SAME FILL-ORIGIN LEVEL: 53607 DIFFERENT FILL-ORIGIN LEVEL: 1387346
L1D AVERAGE MISS LATENCY: 45.3808 cycles
L1D RQ	ACCESS:   48005012	FORWARD:          0	MERGED:   29204142	TO_CACHE:   18689625
L1D WQ	ACCESS:   13084836	FORWARD:     111245	MERGED:      15966	TO_CACHE:   13068870
L1D PQ	ACCESS:   16300372	FORWARD:          0	MERGED:    2684455	TO_CACHE:   13615917

L1D UNIQUE REGIONS ACCESSED: 0
L1D REGIONS CONFLICTS: 0
L1D Cross Page Prefetch Requests: 8982933
L1D Same Page Prefetch Requests: 12284573
L1D ROI Sum of L1D PQ occupancy: 200791001
L1D PREFETCHES PUSHED FROM L2C: 0
L1I TOTAL     ACCESS:   35072743  HIT:   35072693  MISS:         50  HIT %:    99.9999  MISS %: 0.000142561   MPKI: 0.00025
L1I LOAD      ACCESS:   35072743  HIT:   35072693  MISS:         50  HIT %:    99.9999  MISS %: 0.000142561   MPKI: 0.00025
L1I PREFETCH  REQUESTED:          0  ISSUED:          0  USEFUL:          0  USELESS:          0
L1I USEFUL LOAD PREFETCHES:          0 PREFETCH ISSUED TO LOWER LEVEL:          0  ACCURACY: -nan
L1I TIMELY PREFETCHES:          0 LATE PREFETCHES: 0 DROPPED PREFETCHES: 0
L1I PREFETCHES SAME FILL-ORIGIN LEVEL: 0 DIFFERENT FILL-ORIGIN LEVEL: 0
L1I AVERAGE MISS LATENCY: 188.8 cycles
L1I RQ	ACCESS:   47428166	FORWARD:          0	MERGED:   12355408	TO_CACHE:   35072758

BTB TOTAL     ACCESS:    7545870  HIT:    7044172  MISS:     501698  HIT %:    93.3514  MISS %:    6.64864   MPKI: 2.50849
BTB BRANCH_DIRECT_JUMP	ACCESS:     187680  HIT:     187657  MISS:         23
BTB BRANCH_INDIRECT	ACCESS:      12954  HIT:      12953  MISS:          1
BTB BRANCH_CONDITIONAL	ACCESS:    6202321  HIT:    6202232  MISS:         89
BTB BRANCH_DIRECT_CALL	ACCESS:     296945  HIT:     296928  MISS:         17
BTB BRANCH_INDIRECT_CALL	ACCESS:     274513  HIT:     274482  MISS:         31
BTB BRANCH_RETURN	ACCESS:     571457  HIT:      69920  MISS:     501537
BTB BRANCH_OTHER ACCESS:          0  HIT:          0  MISS:          0

L2C TOTAL     ACCESS:    1511905  HIT:    1443477  MISS:      68428  HIT %:    95.4741  MISS %:    4.52595   MPKI: 0.34214
L2C LOAD      ACCESS:      31356  HIT:      13932  MISS:      17424  HIT %:    44.4317  MISS %:    55.5683   MPKI: 0.08712
L2C DATA LOAD MPKI: 0.08687
L2C INSTRUCTION LOAD MPKI: 0.00025
L2C RFO       ACCESS:       2451  HIT:        243  MISS:       2208  HIT %:    9.91432  MISS %:    90.0857   MPKI: 0.01104
L2C PREFETCH  ACCESS:    1426850  HIT:    1378372  MISS:      48478  HIT %:    96.6024  MISS %:    3.39755   MPKI: 0.24239
L2C DATA PREFETCH MPKI: 0.24239
L2C INSTRUCTION PREFETCH MPKI: 0
L2C WRITEBACK ACCESS:       2485  HIT:       2328  MISS:        157  HIT %:    93.6821  MISS %:    6.31791   MPKI: 0.000785
L2C LOAD TRANSLATION ACCESS:        685  HIT:        588  MISS:         97  HIT %:    85.8394  MISS %:    14.1606   MPKI: 0.000485
L2C TRANSLATION FROM L1D PREFETCHER ACCESS:      48078  HIT:      48014  MISS:         64  HIT %:    99.8669  MISS %:   0.133117   MPKI: 0.00032
L2C PREFETCH  REQUESTED:          0  ISSUED:          0  USEFUL:       9986  USELESS:      35594
L2C USEFUL LOAD PREFETCHES:       9986 PREFETCH ISSUED TO LOWER LEVEL:      50018  ACCURACY: 19.9648
L2C TIMELY PREFETCHES:       9986 LATE PREFETCHES: 1540 DROPPED PREFETCHES: 0
L2C PREFETCHES SAME FILL-ORIGIN LEVEL: 40073 DIFFERENT FILL-ORIGIN LEVEL: 0
L2C AVERAGE MISS LATENCY: 88.56 cycles
L2C RQ	ACCESS:      82570	FORWARD:          0	MERGED:          0	TO_CACHE:      82570
L2C WQ	ACCESS:       2485	FORWARD:          0	MERGED:          0	TO_CACHE:       2485
L2C PQ	ACCESS:    1440953	FORWARD:          0	MERGED:          9	TO_CACHE:    1440944

L2C Instructions Evicting Data 50
L2C Translations Evicting Data 161
L2C Data Evicting Data 67876
L2C Instructions Evicting Instructions 0
L2C Translations Evicting Instructions 0
L2C Data Evicting Instructions 48
L2C Instructions Evicting Translations 0
L2C Translations Evicting Translations 0
L2C Data Evicting Translations 136
L2C Dense regions hint from L2: 0
PSCL5 TOTAL     ACCESS:      48763  HIT:      48763  MISS:          0  HIT %:        100  MISS %:          0   MPKI: 0
PSCL5 LOAD TRANSLATION ACCESS:        685  HIT:        685  MISS:          0  HIT %:        100  MISS %:          0   MPKI: 0
PSCL5 TRANSLATION FROM L1D PREFETCHER ACCESS:      48078  HIT:      48078  MISS:          0  HIT %:        100  MISS %:          0   MPKI: 0
PSCL5 PREFETCH  REQUESTED:          0  ISSUED:          0  USEFUL:          0  USELESS:          0
PSCL5 USEFUL LOAD PREFETCHES:          0 PREFETCH ISSUED TO LOWER LEVEL:          0  ACCURACY: -nan
PSCL5 TIMELY PREFETCHES:          0 LATE PREFETCHES: 0 DROPPED PREFETCHES: 0
PSCL5 PREFETCHES SAME FILL-ORIGIN LEVEL: 0 DIFFERENT FILL-ORIGIN LEVEL: 0

PSCL4 TOTAL     ACCESS:      48763  HIT:      48763  MISS:          0  HIT %:        100  MISS %:          0   MPKI: 0
PSCL4 LOAD TRANSLATION ACCESS:        685  HIT:        685  MISS:          0  HIT %:        100  MISS %:          0   MPKI: 0
PSCL4 TRANSLATION FROM L1D PREFETCHER ACCESS:      48078  HIT:      48078  MISS:          0  HIT %:        100  MISS %:          0   MPKI: 0
PSCL4 PREFETCH  REQUESTED:          0  ISSUED:          0  USEFUL:          0  USELESS:          0
PSCL4 USEFUL LOAD PREFETCHES:          0 PREFETCH ISSUED TO LOWER LEVEL:          0  ACCURACY: -nan
PSCL4 TIMELY PREFETCHES:          0 LATE PREFETCHES: 0 DROPPED PREFETCHES: 0
PSCL4 PREFETCHES SAME FILL-ORIGIN LEVEL: 0 DIFFERENT FILL-ORIGIN LEVEL: 0

PSCL3 TOTAL     ACCESS:      48763  HIT:      48763  MISS:          0  HIT %:        100  MISS %:          0   MPKI: 0
PSCL3 LOAD TRANSLATION ACCESS:        685  HIT:        685  MISS:          0  HIT %:        100  MISS %:          0   MPKI: 0
PSCL3 TRANSLATION FROM L1D PREFETCHER ACCESS:      48078  HIT:      48078  MISS:          0  HIT %:        100  MISS %:          0   MPKI: 0
PSCL3 PREFETCH  REQUESTED:          0  ISSUED:          0  USEFUL:          0  USELESS:          0
PSCL3 USEFUL LOAD PREFETCHES:          0 PREFETCH ISSUED TO LOWER LEVEL:          0  ACCURACY: -nan
PSCL3 TIMELY PREFETCHES:          0 LATE PREFETCHES: 0 DROPPED PREFETCHES: 0
PSCL3 PREFETCHES SAME FILL-ORIGIN LEVEL: 0 DIFFERENT FILL-ORIGIN LEVEL: 0

PSCL2 TOTAL     ACCESS:      48253  HIT:      48246  MISS:          7  HIT %:    99.9855  MISS %:  0.0145069   MPKI: 3.5e-05
PSCL2 LOAD TRANSLATION ACCESS:        685  HIT:        678  MISS:          7  HIT %:    98.9781  MISS %:     1.0219   MPKI: 3.5e-05
PSCL2 TRANSLATION FROM L1D PREFETCHER ACCESS:      47568  HIT:      47568  MISS:          0  HIT %:        100  MISS %:          0   MPKI: 0
PSCL2 PREFETCH  REQUESTED:          0  ISSUED:          0  USEFUL:          0  USELESS:          0
PSCL2 USEFUL LOAD PREFETCHES:          0 PREFETCH ISSUED TO LOWER LEVEL:          0  ACCURACY: -nan
PSCL2 TIMELY PREFETCHES:          0 LATE PREFETCHES: 0 DROPPED PREFETCHES: 0
PSCL2 PREFETCHES SAME FILL-ORIGIN LEVEL: 0 DIFFERENT FILL-ORIGIN LEVEL: 0

LLC TOTAL     ACCESS:      70488  HIT:      32860  MISS:      37628  HIT %:    46.6179  MISS %:    53.3821   MPKI: 0.18814
LLC LOAD      ACCESS:      15884  HIT:       7966  MISS:       7918  HIT %:    50.1511  MISS %:    49.8489   MPKI: 0.03959
LLC RFO       ACCESS:       2208  HIT:         39  MISS:       2169  HIT %:     1.7663  MISS %:    98.2337   MPKI: 0.010845
LLC PREFETCH  ACCESS:      50018  HIT:      22698  MISS:      27320  HIT %:    45.3797  MISS %:    54.6203   MPKI: 0.1366
LLC WRITEBACK ACCESS:       2217  HIT:       2123  MISS:         94  HIT %:      95.76  MISS %:    4.23996   MPKI: 0.00047
LLC LOAD TRANSLATION ACCESS:         97  HIT:         17  MISS:         80  HIT %:    17.5258  MISS %:    82.4742   MPKI: 0.0004
LLC TRANSLATION FROM L1D PREFETCHER ACCESS:         64  HIT:         17  MISS:         47  HIT %:    26.5625  MISS %:    73.4375   MPKI: 0.000235
LLC PREFETCH  REQUESTED:          0  ISSUED:          0  USEFUL:       4462  USELESS:      15287
LLC USEFUL LOAD PREFETCHES:       4462 PREFETCH ISSUED TO LOWER LEVEL:      27320  ACCURACY: 16.3324
LLC TIMELY PREFETCHES:       4462 LATE PREFETCHES: 0 DROPPED PREFETCHES: 0
LLC PREFETCHES SAME FILL-ORIGIN LEVEL: 0 DIFFERENT FILL-ORIGIN LEVEL: 0
LLC AVERAGE MISS LATENCY: 108.534 cycles
LLC RQ	ACCESS:      18253	FORWARD:          0	MERGED:          0	TO_CACHE:      18253
LLC WQ	ACCESS:       2217	FORWARD:          0	MERGED:          0	TO_CACHE:       2217
LLC PQ	ACCESS:      50018	FORWARD:          0	MERGED:          0	TO_CACHE:      50018

LLC Dense regions hint to LLC: 0

RAW hits: 605933
Loads Generated: 48610945
Loads sent to L1D: 48005012
Stores Generated: 13084828
Stores sent to L1D: 13084836
Major fault: 0 Minor fault: 1012
Allocated PAGES: 1012

DRAM Statistics
 CHANNEL 0
 RQ ROW_BUFFER_HIT:      24662  ROW_BUFFER_MISS:      12872
 DBUS_CONGESTED:         27
 WQ ROW_BUFFER_HIT:         79  ROW_BUFFER_MISS:       1184  FULL:          0

 AVG_CONGESTED_CYCLE: 4
 All warmup complete: 2
Channel 0 Bank busy for read cycles: 0
Channel 0 Bank busy for write cycles: 0
Channel 0
Rank 0
0banks busy for read cycles: 251972186
0banks busy for write cycles: 780
1banks busy for read cycles: 1197069
1banks busy for write cycles: 96449
2banks busy for read cycles: 331848
2banks busy for write cycles: 24572
3banks busy for read cycles: 115846
3banks busy for write cycles: 9227
4banks busy for read cycles: 58698
4banks busy for write cycles: 4958
5banks busy for read cycles: 46565
5banks busy for write cycles: 2652
6banks busy for read cycles: 43336
6banks busy for write cycles: 1507
7banks busy for read cycles: 20231
7banks busy for write cycles: 113
8banks busy for read cycles: 10812
8banks busy for write cycles: 179

CPU 0 Branch Prediction Accuracy: 99.8408% MPKI: 0.05677 Average ROB Occupancy at Mispredict: 45.6518
Branch types
NOT_BRANCH: 191523558 95.7618%
BRANCH_DIRECT_JUMP: 187680 0.09384%
BRANCH_INDIRECT: 12954 0.006477%
BRANCH_CONDITIONAL: 7132559 3.56628%
BRANCH_DIRECT_CALL: 296945 0.148473%
BRANCH_INDIRECT_CALL: 274513 0.137257%
BRANCH_RETURN: 571457 0.285728%
BRANCH_OTHER: 0 0%

DRAM PAGES: 1048576
Allocated PAGES: 1012
