
*** ChampSim Multicore Out-of-Order Simulator ***

Warmup Instructions: 50000000
Simulation Instructions: 200000000
Number of CPUs: 1
LLC sets: 2048
LLC ways: 16
Off-chip DRAM Size: 4096 MB Channels: 1 Width: 64-bit Data Rate: 6400 MT/s
argv[0]: ./ChampSim/Berti/bin/multiperspective_perceptron8kb-no-vberti-no-no-no-no-no-lru-lru-lru-srrip-drrip-lru-lru-lru-1core-no
argv[1]: -warmup_instructions
argv[2]: 50000000
argv[3]: -simulation_instructions
argv[4]: 200000000
argv[5]: -traces
argv[6]: traces/spec2k17_ten/607.cactuBSSN_s-3477B.champsimtrace.xz
CPU 0 runs traces/spec2k17_ten/607.cactuBSSN_s-3477B.champsimtrace.xz
.xz
CPU 0 Multiperspective perceptron branch predictor
BTB has LRU replacement policy
ITLB has LRU replacement policy
DTLB has LRU replacement policy
STLB has LRU replacement policy
L1I has LRU replacement policy
History Sets: 8
History Ways: 16
BERTI Size: 16
BERTI Stride Size: 16
L1D has LRU replacement policy
Initialize SRRIP state for L2C
Initialize DRRIP state for LLC
Heartbeat CPU 0 instructions: 10000000 cycles: 3672551 heartbeat IPC: 2.7229 cumulative IPC: 2.7229 (Simulation time: 0 hr 12 min 36 sec) 
Heartbeat CPU 0 instructions: 20000003 cycles: 7343398 heartbeat IPC: 2.72417 cumulative IPC: 2.72354 (Simulation time: 0 hr 21 min 7 sec) 
Heartbeat CPU 0 instructions: 30000000 cycles: 11014314 heartbeat IPC: 2.72411 cumulative IPC: 2.72373 (Simulation time: 0 hr 28 min 58 sec) 
Heartbeat CPU 0 instructions: 40000003 cycles: 14685059 heartbeat IPC: 2.72424 cumulative IPC: 2.72386 (Simulation time: 0 hr 35 min 8 sec) 
Heartbeat CPU 0 instructions: 50000000 cycles: 18358232 heartbeat IPC: 2.72244 cumulative IPC: 2.72357 (Simulation time: 0 hr 41 min 59 sec) 

Warmup complete CPU 0 instructions: 50000004 cycles: 18358233 (Simulation time: 0 hr 41 min 59 sec) 

Heartbeat CPU 0 instructions: 60000000 cycles: 30167295 heartbeat IPC: 0.846807 cumulative IPC: 0.846807 (Simulation time: 0 hr 50 min 53 sec) 
Heartbeat CPU 0 instructions: 70000001 cycles: 42042095 heartbeat IPC: 0.84212 cumulative IPC: 0.844457 (Simulation time: 1 hr 0 min 35 sec) 
Heartbeat CPU 0 instructions: 80000001 cycles: 53953605 heartbeat IPC: 0.839524 cumulative IPC: 0.842806 (Simulation time: 1 hr 9 min 33 sec) 
Heartbeat CPU 0 instructions: 90000002 cycles: 65836441 heartbeat IPC: 0.84155 cumulative IPC: 0.842492 (Simulation time: 1 hr 16 min 54 sec) 
Heartbeat CPU 0 instructions: 100000000 cycles: 77662752 heartbeat IPC: 0.845572 cumulative IPC: 0.843106 (Simulation time: 1 hr 24 min 44 sec) 
Heartbeat CPU 0 instructions: 110000000 cycles: 89514873 heartbeat IPC: 0.843731 cumulative IPC: 0.84321 (Simulation time: 1 hr 32 min 45 sec) 
Heartbeat CPU 0 instructions: 120000002 cycles: 101359784 heartbeat IPC: 0.844245 cumulative IPC: 0.843358 (Simulation time: 1 hr 38 min 45 sec) 
Heartbeat CPU 0 instructions: 130000002 cycles: 113238207 heartbeat IPC: 0.841863 cumulative IPC: 0.843171 (Simulation time: 1 hr 46 min 31 sec) 
Heartbeat CPU 0 instructions: 140000000 cycles: 125076511 heartbeat IPC: 0.844715 cumulative IPC: 0.843342 (Simulation time: 1 hr 53 min 40 sec) 
Heartbeat CPU 0 instructions: 150000000 cycles: 136940548 heartbeat IPC: 0.842883 cumulative IPC: 0.843296 (Simulation time: 1 hr 59 min 25 sec) 
Heartbeat CPU 0 instructions: 160000002 cycles: 148833247 heartbeat IPC: 0.840852 cumulative IPC: 0.843073 (Simulation time: 2 hr 4 min 48 sec) 
Heartbeat CPU 0 instructions: 170000000 cycles: 160686982 heartbeat IPC: 0.843616 cumulative IPC: 0.843118 (Simulation time: 2 hr 11 min 6 sec) 
Heartbeat CPU 0 instructions: 180000000 cycles: 172584941 heartbeat IPC: 0.84048 cumulative IPC: 0.842915 (Simulation time: 2 hr 20 min 37 sec) 
Heartbeat CPU 0 instructions: 190000001 cycles: 184417537 heartbeat IPC: 0.845123 cumulative IPC: 0.843072 (Simulation time: 2 hr 28 min 38 sec) 
Heartbeat CPU 0 instructions: 200000001 cycles: 196469188 heartbeat IPC: 0.829762 cumulative IPC: 0.842172 (Simulation time: 2 hr 35 min 25 sec) 
Heartbeat CPU 0 instructions: 210000001 cycles: 208356263 heartbeat IPC: 0.84125 cumulative IPC: 0.842114 (Simulation time: 2 hr 41 min 15 sec) 
Heartbeat CPU 0 instructions: 220000000 cycles: 220243615 heartbeat IPC: 0.84123 cumulative IPC: 0.842062 (Simulation time: 2 hr 47 min 0 sec) 
Heartbeat CPU 0 instructions: 230000000 cycles: 232060219 heartbeat IPC: 0.846267 cumulative IPC: 0.842294 (Simulation time: 2 hr 54 min 49 sec) 
Heartbeat CPU 0 instructions: 240000001 cycles: 243927992 heartbeat IPC: 0.842618 cumulative IPC: 0.842312 (Simulation time: 3 hr 1 min 58 sec) 
Heartbeat CPU 0 instructions: 250000001 cycles: 255813305 heartbeat IPC: 0.841375 cumulative IPC: 0.842265 (Simulation time: 3 hr 8 min 35 sec) 
Finished CPU 0 instructions: 200000001 cycles: 237455073 cumulative IPC: 0.842265 (Simulation time: 3 hr 8 min 35 sec) 

ChampSim completed all CPUs

Region of Interest Statistics

CPU 0 cumulative IPC: 0.842265 instructions: 200000001 cycles: 237455073
ITLB TOTAL     ACCESS:   28004510  HIT:   28004510  MISS:          0  HIT %:        100  MISS %:          0   MPKI: 0
ITLB LOAD TRANSLATION ACCESS:   28004510  HIT:   28004510  MISS:          0  HIT %:        100  MISS %:          0   MPKI: 0
ITLB PREFETCH  REQUESTED:          0  ISSUED:          0  USEFUL:          0  USELESS:          0
ITLB USEFUL LOAD PREFETCHES:          0 PREFETCH ISSUED TO LOWER LEVEL:          0  ACCURACY: -nan
ITLB TIMELY PREFETCHES:          0 LATE PREFETCHES: 0 DROPPED PREFETCHES: 0
ITLB PREFETCHES SAME FILL-ORIGIN LEVEL: 0 DIFFERENT FILL-ORIGIN LEVEL: 0
ITLB AVERAGE MISS LATENCY: -nan cycles
ITLB RQ	ACCESS:   34307410	FORWARD:          0	MERGED:    6302899	TO_CACHE:   28004511

DTLB TOTAL     ACCESS:   59957427  HIT:   52384749  MISS:    7572678  HIT %:    87.3699  MISS %:    12.6301   MPKI: 37.8634
DTLB LOAD TRANSLATION ACCESS:   59957427  HIT:   52384749  MISS:    7572678  HIT %:    87.3699  MISS %:    12.6301   MPKI: 37.8634
DTLB PREFETCH  REQUESTED:          0  ISSUED:          0  USEFUL:          0  USELESS:          0
DTLB USEFUL LOAD PREFETCHES:          0 PREFETCH ISSUED TO LOWER LEVEL:          0  ACCURACY: -nan
DTLB TIMELY PREFETCHES:          0 LATE PREFETCHES: 0 DROPPED PREFETCHES: 0
DTLB PREFETCHES SAME FILL-ORIGIN LEVEL: 0 DIFFERENT FILL-ORIGIN LEVEL: 0
DTLB AVERAGE MISS LATENCY: 9.96791 cycles
DTLB RQ	ACCESS:   78738024	FORWARD:          0	MERGED:   17996647	TO_CACHE:   60741377

STLB TOTAL     ACCESS:    7721390  HIT:    7713073  MISS:       8317  HIT %:    99.8923  MISS %:   0.107714   MPKI: 0.041585
STLB LOAD TRANSLATION ACCESS:    7572678  HIT:    7564567  MISS:       8111  HIT %:    99.8929  MISS %:   0.107109   MPKI: 0.040555
STLB TRANSLATION FROM L1D PREFETCHER ACCESS:     148712  HIT:     148506  MISS:        206  HIT %:    99.8615  MISS %:   0.138523   MPKI: 0.00103
STLB PREFETCH  REQUESTED:          0  ISSUED:          0  USEFUL:        206  USELESS:          0
STLB USEFUL LOAD PREFETCHES:        206 PREFETCH ISSUED TO LOWER LEVEL:          0  ACCURACY: inf
STLB TIMELY PREFETCHES:        206 LATE PREFETCHES: 2 DROPPED PREFETCHES: 114074
STLB PREFETCHES SAME FILL-ORIGIN LEVEL: 0 DIFFERENT FILL-ORIGIN LEVEL: 0
STLB AVERAGE MISS LATENCY: 543.774 cycles
STLB RQ	ACCESS:    7848028	FORWARD:          0	MERGED:      11985	TO_CACHE:    7836043

STLB Hit, L1D data hit: 0
STLB Hit, L2C data hit: 0
STLB Hit, LLC data hit: 0
STLB Hit, LLC data miss: 0
STLB STLB hints to L2: 0
L1D TOTAL     ACCESS:   78369147  HIT:   63711141  MISS:   14658006  HIT %:    81.2962  MISS %:    18.7038   MPKI: 73.29
L1D LOAD      ACCESS:   62519135  HIT:   49067760  MISS:   13451375  HIT %:    78.4844  MISS %:    21.5156   MPKI: 67.2569
L1D RFO       ACCESS:   15809807  HIT:   14604853  MISS:    1204954  HIT %:    92.3784  MISS %:    7.62156   MPKI: 6.02477
L1D PREFETCH  ACCESS:      40205  HIT:      38528  MISS:       1677  HIT %:    95.8289  MISS %:    4.17112   MPKI: 0.008385
L1D PREFETCH  REQUESTED:     551051  ISSUED:     551051  USEFUL:        491  USELESS:       1186
L1D USEFUL LOAD PREFETCHES:        491 PREFETCH ISSUED TO LOWER LEVEL:     107788  ACCURACY: 0.455524
L1D TIMELY PREFETCHES:        491 LATE PREFETCHES: 81 DROPPED PREFETCHES: 116975
L1D PREFETCHES SAME FILL-ORIGIN LEVEL: 1758 DIFFERENT FILL-ORIGIN LEVEL: 106030
L1D AVERAGE MISS LATENCY: 29.1397 cycles
L1D RQ	ACCESS:   77380878	FORWARD:          0	MERGED:   14488668	TO_CACHE:   62830618
L1D WQ	ACCESS:   16015916	FORWARD:      61592	MERGED:     108510	TO_CACHE:   15907406
L1D PQ	ACCESS:     275701	FORWARD:          0	MERGED:        351	TO_CACHE:     275350

L1D UNIQUE REGIONS ACCESSED: 0
L1D REGIONS CONFLICTS: 0
L1D Cross Page Prefetch Requests: 348945
L1D Same Page Prefetch Requests: 31674
L1D ROI Sum of L1D PQ occupancy: 7537209
L1D PREFETCHES PUSHED FROM L2C: 0
L1I TOTAL     ACCESS:   31352840  HIT:   25568409  MISS:    5784431  HIT %:    81.5505  MISS %:    18.4495   MPKI: 28.9222
L1I LOAD      ACCESS:   31352840  HIT:   25568409  MISS:    5784431  HIT %:    81.5505  MISS %:    18.4495   MPKI: 28.9222
L1I PREFETCH  REQUESTED:          0  ISSUED:          0  USEFUL:          0  USELESS:          0
L1I USEFUL LOAD PREFETCHES:          0 PREFETCH ISSUED TO LOWER LEVEL:          0  ACCURACY: -nan
L1I TIMELY PREFETCHES:          0 LATE PREFETCHES: 0 DROPPED PREFETCHES: 0
L1I PREFETCHES SAME FILL-ORIGIN LEVEL: 0 DIFFERENT FILL-ORIGIN LEVEL: 0
L1I AVERAGE MISS LATENCY: 14.0778 cycles
L1I RQ	ACCESS:   47874646	FORWARD:          0	MERGED:   13567236	TO_CACHE:   34307410

BTB TOTAL     ACCESS:    1169485  HIT:    1096958  MISS:      72527  HIT %:    93.7984  MISS %:    6.20162   MPKI: 0.362635
BTB BRANCH_DIRECT_JUMP	ACCESS:     217104  HIT:     217073  MISS:         31
BTB BRANCH_INDIRECT	ACCESS:      36158  HIT:      36156  MISS:          2
BTB BRANCH_CONDITIONAL	ACCESS:     482257  HIT:     482171  MISS:         86
BTB BRANCH_DIRECT_CALL	ACCESS:     216983  HIT:     216939  MISS:         44
BTB BRANCH_INDIRECT_CALL	ACCESS:          0  HIT:          0  MISS:          0
BTB BRANCH_RETURN	ACCESS:     216983  HIT:     144619  MISS:      72364
BTB BRANCH_OTHER ACCESS:          0  HIT:          0  MISS:          0

L2C TOTAL     ACCESS:   22111246  HIT:   21062503  MISS:    1048743  HIT %:     95.257  MISS %:    4.74303   MPKI: 5.24371
L2C LOAD      ACCESS:   19233895  HIT:   18333146  MISS:     900749  HIT %:    95.3169  MISS %:    4.68313   MPKI: 4.50374
L2C DATA LOAD MPKI: 4.50141
L2C INSTRUCTION LOAD MPKI: 0.00233
L2C RFO       ACCESS:    1204034  HIT:    1086940  MISS:     117094  HIT %:    90.2749  MISS %:    9.72514   MPKI: 0.58547
L2C PREFETCH  ACCESS:     107766  HIT:      94571  MISS:      13195  HIT %:    87.7559  MISS %:    12.2441   MPKI: 0.065975
L2C DATA PREFETCH MPKI: 0.065975
L2C INSTRUCTION PREFETCH MPKI: 0
L2C WRITEBACK ACCESS:    1298760  HIT:    1293596  MISS:       5164  HIT %:    99.6024  MISS %:    0.39761   MPKI: 0.02582
L2C LOAD TRANSLATION ACCESS:      12322  HIT:        359  MISS:      11963  HIT %:    2.91349  MISS %:    97.0865   MPKI: 0.059815
L2C TRANSLATION FROM L1D PREFETCHER ACCESS:     254469  HIT:     253891  MISS:        578  HIT %:    99.7729  MISS %:    0.22714   MPKI: 0.00289
L2C PREFETCH  REQUESTED:          0  ISSUED:          0  USEFUL:       5679  USELESS:       8067
L2C USEFUL LOAD PREFETCHES:       5679 PREFETCH ISSUED TO LOWER LEVEL:      13215  ACCURACY: 42.9739
L2C TIMELY PREFETCHES:       5679 LATE PREFETCHES: 20 DROPPED PREFETCHES: 0
L2C PREFETCHES SAME FILL-ORIGIN LEVEL: 12685 DIFFERENT FILL-ORIGIN LEVEL: 0
L2C AVERAGE MISS LATENCY: 193.392 cycles
L2C RQ	ACCESS:   20707470	FORWARD:          0	MERGED:          0	TO_CACHE:   20704720
L2C WQ	ACCESS:    1298760	FORWARD:       2750	MERGED:          0	TO_CACHE:    1298760
L2C PQ	ACCESS:     107788	FORWARD:          0	MERGED:          0	TO_CACHE:     107788

L2C Instructions Evicting Data 457
L2C Translations Evicting Data 12398
L2C Data Evicting Data 1017721
L2C Instructions Evicting Instructions 7
L2C Translations Evicting Instructions 4
L2C Data Evicting Instructions 453
L2C Instructions Evicting Translations 2
L2C Translations Evicting Translations 139
L2C Data Evicting Translations 12398
L2C Dense regions hint from L2: 0
PSCL5 TOTAL     ACCESS:     122393  HIT:     122393  MISS:          0  HIT %:        100  MISS %:          0   MPKI: 0
PSCL5 LOAD TRANSLATION ACCESS:       8111  HIT:       8111  MISS:          0  HIT %:        100  MISS %:          0   MPKI: 0
PSCL5 TRANSLATION FROM L1D PREFETCHER ACCESS:     114282  HIT:     114282  MISS:          0  HIT %:        100  MISS %:          0   MPKI: 0
PSCL5 PREFETCH  REQUESTED:          0  ISSUED:          0  USEFUL:          0  USELESS:          0
PSCL5 USEFUL LOAD PREFETCHES:          0 PREFETCH ISSUED TO LOWER LEVEL:          0  ACCURACY: -nan
PSCL5 TIMELY PREFETCHES:          0 LATE PREFETCHES: 0 DROPPED PREFETCHES: 0
PSCL5 PREFETCHES SAME FILL-ORIGIN LEVEL: 0 DIFFERENT FILL-ORIGIN LEVEL: 0

PSCL4 TOTAL     ACCESS:     122393  HIT:     122393  MISS:          0  HIT %:        100  MISS %:          0   MPKI: 0
PSCL4 LOAD TRANSLATION ACCESS:       8111  HIT:       8111  MISS:          0  HIT %:        100  MISS %:          0   MPKI: 0
PSCL4 TRANSLATION FROM L1D PREFETCHER ACCESS:     114282  HIT:     114282  MISS:          0  HIT %:        100  MISS %:          0   MPKI: 0
PSCL4 PREFETCH  REQUESTED:          0  ISSUED:          0  USEFUL:          0  USELESS:          0
PSCL4 USEFUL LOAD PREFETCHES:          0 PREFETCH ISSUED TO LOWER LEVEL:          0  ACCURACY: -nan
PSCL4 TIMELY PREFETCHES:          0 LATE PREFETCHES: 0 DROPPED PREFETCHES: 0
PSCL4 PREFETCHES SAME FILL-ORIGIN LEVEL: 0 DIFFERENT FILL-ORIGIN LEVEL: 0

PSCL3 TOTAL     ACCESS:      80783  HIT:      80778  MISS:          5  HIT %:    99.9938  MISS %: 0.00618942   MPKI: 2.5e-05
PSCL3 LOAD TRANSLATION ACCESS:       8100  HIT:       8095  MISS:          5  HIT %:    99.9383  MISS %:  0.0617284   MPKI: 2.5e-05
PSCL3 TRANSLATION FROM L1D PREFETCHER ACCESS:      72683  HIT:      72683  MISS:          0  HIT %:        100  MISS %:          0   MPKI: 0
PSCL3 PREFETCH  REQUESTED:          0  ISSUED:          0  USEFUL:          0  USELESS:          0
PSCL3 USEFUL LOAD PREFETCHES:          0 PREFETCH ISSUED TO LOWER LEVEL:          0  ACCURACY: -nan
PSCL3 TIMELY PREFETCHES:          0 LATE PREFETCHES: 0 DROPPED PREFETCHES: 0
PSCL3 PREFETCHES SAME FILL-ORIGIN LEVEL: 0 DIFFERENT FILL-ORIGIN LEVEL: 0

PSCL2 TOTAL     ACCESS:      23843  HIT:      19581  MISS:       4262  HIT %:    82.1247  MISS %:    17.8753   MPKI: 0.02131
PSCL2 LOAD TRANSLATION ACCESS:       8157  HIT:       3895  MISS:       4262  HIT %:    47.7504  MISS %:    52.2496   MPKI: 0.02131
PSCL2 TRANSLATION FROM L1D PREFETCHER ACCESS:      15686  HIT:      15686  MISS:          0  HIT %:        100  MISS %:          0   MPKI: 0
PSCL2 PREFETCH  REQUESTED:          0  ISSUED:          0  USEFUL:          0  USELESS:          0
PSCL2 USEFUL LOAD PREFETCHES:          0 PREFETCH ISSUED TO LOWER LEVEL:          0  ACCURACY: -nan
PSCL2 TIMELY PREFETCHES:          0 LATE PREFETCHES: 0 DROPPED PREFETCHES: 0
PSCL2 PREFETCHES SAME FILL-ORIGIN LEVEL: 0 DIFFERENT FILL-ORIGIN LEVEL: 0

LLC TOTAL     ACCESS:    1160819  HIT:     619922  MISS:     540897  HIT %:    53.4038  MISS %:    46.5962   MPKI: 2.70448
LLC LOAD      ACCESS:     900729  HIT:     491548  MISS:     409181  HIT %:    54.5722  MISS %:    45.4278   MPKI: 2.0459
LLC RFO       ACCESS:     117093  HIT:          6  MISS:     117087  HIT %: 0.00512413  MISS %:    99.9949   MPKI: 0.585435
LLC PREFETCH  ACCESS:      13215  HIT:       1657  MISS:      11558  HIT %:    12.5388  MISS %:    87.4612   MPKI: 0.05779
LLC WRITEBACK ACCESS:     117241  HIT:     115360  MISS:       1881  HIT %:    98.3956  MISS %:    1.60439   MPKI: 0.009405
LLC LOAD TRANSLATION ACCESS:      11963  HIT:      10858  MISS:       1105  HIT %:    90.7632  MISS %:    9.23681   MPKI: 0.005525
LLC TRANSLATION FROM L1D PREFETCHER ACCESS:        578  HIT:        493  MISS:         85  HIT %:    85.2941  MISS %:    14.7059   MPKI: 0.000425
LLC PREFETCH  REQUESTED:          0  ISSUED:          0  USEFUL:       6914  USELESS:       4798
LLC USEFUL LOAD PREFETCHES:       6914 PREFETCH ISSUED TO LOWER LEVEL:      11558  ACCURACY: 59.82
LLC TIMELY PREFETCHES:       6914 LATE PREFETCHES: 0 DROPPED PREFETCHES: 0
LLC PREFETCHES SAME FILL-ORIGIN LEVEL: 0 DIFFERENT FILL-ORIGIN LEVEL: 0
LLC AVERAGE MISS LATENCY: 316.354 cycles
LLC RQ	ACCESS:    1030364	FORWARD:          0	MERGED:          0	TO_CACHE:    1030363
LLC WQ	ACCESS:     117241	FORWARD:          1	MERGED:          0	TO_CACHE:     117241
LLC PQ	ACCESS:      13215	FORWARD:          0	MERGED:          0	TO_CACHE:      13215

LLC Dense regions hint to LLC: 0

RAW hits: 454781
Loads Generated: 77835659
Loads sent to L1D: 77380878
Stores Generated: 16016275
Stores sent to L1D: 16016277
Major fault: 0 Minor fault: 8463
Allocated PAGES: 8463

DRAM Statistics
 CHANNEL 0
 RQ ROW_BUFFER_HIT:     274443  ROW_BUFFER_MISS:     264573
 DBUS_CONGESTED:        188
 WQ ROW_BUFFER_HIT:      36991  ROW_BUFFER_MISS:      79186  FULL:          0

 AVG_CONGESTED_CYCLE: 4
 All warmup complete: 2
Channel 0 Bank busy for read cycles: 0
Channel 0 Bank busy for write cycles: 0
Channel 0
Rank 0
0banks busy for read cycles: 186194146
0banks busy for write cycles: 51050
1banks busy for read cycles: 26618417
1banks busy for write cycles: 9004331
2banks busy for read cycles: 5487179
2banks busy for write cycles: 2312539
3banks busy for read cycles: 2697379
3banks busy for write cycles: 2220781
4banks busy for read cycles: 499097
4banks busy for write cycles: 627075
5banks busy for read cycles: 565064
5banks busy for write cycles: 334941
6banks busy for read cycles: 350747
6banks busy for write cycles: 270181
7banks busy for read cycles: 113802
7banks busy for write cycles: 103838
8banks busy for read cycles: 310
8banks busy for write cycles: 4197

CPU 0 Branch Prediction Accuracy: 99.9753% MPKI: 0.00134 Average ROB Occupancy at Mispredict: 26.7873
Branch types
NOT_BRANCH: 198225696 99.1128%
BRANCH_DIRECT_JUMP: 217104 0.108552%
BRANCH_INDIRECT: 36158 0.018079%
BRANCH_CONDITIONAL: 1086728 0.543364%
BRANCH_DIRECT_CALL: 216983 0.108491%
BRANCH_INDIRECT_CALL: 0 0%
BRANCH_RETURN: 216983 0.108491%
BRANCH_OTHER: 0 0%

DRAM PAGES: 1048576
Allocated PAGES: 8463
