
*** ChampSim Multicore Out-of-Order Simulator ***

Warmup Instructions: 50000000
Simulation Instructions: 200000000
Number of CPUs: 1
LLC sets: 2048
LLC ways: 16
Off-chip DRAM Size: 4096 MB Channels: 1 Width: 64-bit Data Rate: 6400 MT/s
argv[0]: ./ChampSim/Berti/bin/multiperspective_perceptron8kb-no-vberti-no-no-no-no-no-lru-lru-lru-srrip-drrip-lru-lru-lru-1core-no
argv[1]: -warmup_instructions
argv[2]: 50000000
argv[3]: -simulation_instructions
argv[4]: 200000000
argv[5]: -traces
argv[6]: traces/spec2k17_ten/607.cactuBSSN_s-4004B.champsimtrace.xz
CPU 0 runs traces/spec2k17_ten/607.cactuBSSN_s-4004B.champsimtrace.xz
.xz
CPU 0 Multiperspective perceptron branch predictor
BTB has LRU replacement policy
ITLB has LRU replacement policy
DTLB has LRU replacement policy
STLB has LRU replacement policy
L1I has LRU replacement policy
History Sets: 8
History Ways: 16
BERTI Size: 16
BERTI Stride Size: 16
L1D has LRU replacement policy
Initialize SRRIP state for L2C
Initialize DRRIP state for LLC
Heartbeat CPU 0 instructions: 10000001 cycles: 3597746 heartbeat IPC: 2.77952 cumulative IPC: 2.77952 (Simulation time: 0 hr 9 min 22 sec) 
Heartbeat CPU 0 instructions: 20000001 cycles: 7195119 heartbeat IPC: 2.77981 cumulative IPC: 2.77966 (Simulation time: 0 hr 17 min 59 sec) 
Heartbeat CPU 0 instructions: 30000003 cycles: 10791764 heartbeat IPC: 2.78037 cumulative IPC: 2.7799 (Simulation time: 0 hr 25 min 20 sec) 
Heartbeat CPU 0 instructions: 40000000 cycles: 14389222 heartbeat IPC: 2.77974 cumulative IPC: 2.77986 (Simulation time: 0 hr 32 min 13 sec) 
Heartbeat CPU 0 instructions: 50000002 cycles: 17985040 heartbeat IPC: 2.78101 cumulative IPC: 2.78009 (Simulation time: 0 hr 38 min 45 sec) 

Warmup complete CPU 0 instructions: 50000002 cycles: 17985040 (Simulation time: 0 hr 38 min 45 sec) 

Heartbeat CPU 0 instructions: 60000002 cycles: 29640563 heartbeat IPC: 0.857962 cumulative IPC: 0.857962 (Simulation time: 0 hr 44 min 49 sec) 
Heartbeat CPU 0 instructions: 70000003 cycles: 41289142 heartbeat IPC: 0.858474 cumulative IPC: 0.858218 (Simulation time: 0 hr 52 min 31 sec) 
Heartbeat CPU 0 instructions: 80000002 cycles: 53154695 heartbeat IPC: 0.842776 cumulative IPC: 0.853008 (Simulation time: 1 hr 1 min 22 sec) 
Heartbeat CPU 0 instructions: 90000003 cycles: 64768514 heartbeat IPC: 0.861043 cumulative IPC: 0.855003 (Simulation time: 1 hr 10 min 0 sec) 
Heartbeat CPU 0 instructions: 100000000 cycles: 76407353 heartbeat IPC: 0.859192 cumulative IPC: 0.855837 (Simulation time: 1 hr 16 min 5 sec) 
Heartbeat CPU 0 instructions: 110000000 cycles: 88084189 heartbeat IPC: 0.856396 cumulative IPC: 0.85593 (Simulation time: 1 hr 23 min 0 sec) 
Heartbeat CPU 0 instructions: 120000001 cycles: 99736814 heartbeat IPC: 0.858176 cumulative IPC: 0.856251 (Simulation time: 1 hr 31 min 32 sec) 
Heartbeat CPU 0 instructions: 130000000 cycles: 111380678 heartbeat IPC: 0.858821 cumulative IPC: 0.856571 (Simulation time: 1 hr 37 min 13 sec) 
Heartbeat CPU 0 instructions: 140000002 cycles: 123071559 heartbeat IPC: 0.855368 cumulative IPC: 0.856437 (Simulation time: 1 hr 44 min 29 sec) 
Heartbeat CPU 0 instructions: 150000002 cycles: 134757669 heartbeat IPC: 0.855717 cumulative IPC: 0.856365 (Simulation time: 1 hr 49 min 41 sec) 
Heartbeat CPU 0 instructions: 160000002 cycles: 146465170 heartbeat IPC: 0.854153 cumulative IPC: 0.856164 (Simulation time: 1 hr 56 min 11 sec) 
Heartbeat CPU 0 instructions: 170000000 cycles: 158097460 heartbeat IPC: 0.859676 cumulative IPC: 0.856455 (Simulation time: 2 hr 2 min 28 sec) 
Heartbeat CPU 0 instructions: 180000001 cycles: 169759588 heartbeat IPC: 0.857477 cumulative IPC: 0.856534 (Simulation time: 2 hr 9 min 37 sec) 
Heartbeat CPU 0 instructions: 190000000 cycles: 181436379 heartbeat IPC: 0.8564 cumulative IPC: 0.856524 (Simulation time: 2 hr 15 min 1 sec) 
Heartbeat CPU 0 instructions: 200000003 cycles: 193091980 heartbeat IPC: 0.857957 cumulative IPC: 0.856619 (Simulation time: 2 hr 23 min 36 sec) 
Heartbeat CPU 0 instructions: 210000001 cycles: 204756966 heartbeat IPC: 0.857266 cumulative IPC: 0.85666 (Simulation time: 2 hr 32 min 25 sec) 
Heartbeat CPU 0 instructions: 220000000 cycles: 216413293 heartbeat IPC: 0.857903 cumulative IPC: 0.856733 (Simulation time: 2 hr 38 min 14 sec) 
Heartbeat CPU 0 instructions: 230000000 cycles: 228073313 heartbeat IPC: 0.857631 cumulative IPC: 0.856783 (Simulation time: 2 hr 44 min 25 sec) 
Heartbeat CPU 0 instructions: 240000001 cycles: 239925397 heartbeat IPC: 0.843734 cumulative IPC: 0.856086 (Simulation time: 2 hr 52 min 3 sec) 
Heartbeat CPU 0 instructions: 250000000 cycles: 251607943 heartbeat IPC: 0.855978 cumulative IPC: 0.85608 (Simulation time: 2 hr 59 min 57 sec) 
Finished CPU 0 instructions: 200000002 cycles: 233622904 cumulative IPC: 0.85608 (Simulation time: 2 hr 59 min 57 sec) 

ChampSim completed all CPUs

Region of Interest Statistics

CPU 0 cumulative IPC: 0.85608 instructions: 200000002 cycles: 233622904
ITLB TOTAL     ACCESS:   27994209  HIT:   27994209  MISS:          0  HIT %:        100  MISS %:          0   MPKI: 0
ITLB LOAD TRANSLATION ACCESS:   27994209  HIT:   27994209  MISS:          0  HIT %:        100  MISS %:          0   MPKI: 0
ITLB PREFETCH  REQUESTED:          0  ISSUED:          0  USEFUL:          0  USELESS:          0
ITLB USEFUL LOAD PREFETCHES:          0 PREFETCH ISSUED TO LOWER LEVEL:          0  ACCURACY: -nan
ITLB TIMELY PREFETCHES:          0 LATE PREFETCHES: 0 DROPPED PREFETCHES: 0
ITLB PREFETCHES SAME FILL-ORIGIN LEVEL: 0 DIFFERENT FILL-ORIGIN LEVEL: 0
ITLB AVERAGE MISS LATENCY: -nan cycles
ITLB RQ	ACCESS:   34026710	FORWARD:          0	MERGED:    6032501	TO_CACHE:   27994209

DTLB TOTAL     ACCESS:   56532434  HIT:   48802303  MISS:    7730131  HIT %:    86.3262  MISS %:    13.6738   MPKI: 38.6507
DTLB LOAD TRANSLATION ACCESS:   56532434  HIT:   48802303  MISS:    7730131  HIT %:    86.3262  MISS %:    13.6738   MPKI: 38.6507
DTLB PREFETCH  REQUESTED:          0  ISSUED:          0  USEFUL:          0  USELESS:          0
DTLB USEFUL LOAD PREFETCHES:          0 PREFETCH ISSUED TO LOWER LEVEL:          0  ACCURACY: -nan
DTLB TIMELY PREFETCHES:          0 LATE PREFETCHES: 0 DROPPED PREFETCHES: 0
DTLB PREFETCHES SAME FILL-ORIGIN LEVEL: 0 DIFFERENT FILL-ORIGIN LEVEL: 0
DTLB AVERAGE MISS LATENCY: 9.91722 cycles
DTLB RQ	ACCESS:   79138070	FORWARD:          0	MERGED:   21747076	TO_CACHE:   57390994

STLB TOTAL     ACCESS:    8040300  HIT:    8031761  MISS:       8539  HIT %:    99.8938  MISS %:   0.106203   MPKI: 0.042695
STLB LOAD TRANSLATION ACCESS:    7730131  HIT:    7721795  MISS:       8336  HIT %:    99.8922  MISS %:   0.107838   MPKI: 0.04168
STLB TRANSLATION FROM L1D PREFETCHER ACCESS:     310169  HIT:     309966  MISS:        203  HIT %:    99.9346  MISS %:  0.0654482   MPKI: 0.001015
STLB PREFETCH  REQUESTED:          0  ISSUED:          0  USEFUL:        203  USELESS:          0
STLB USEFUL LOAD PREFETCHES:        203 PREFETCH ISSUED TO LOWER LEVEL:          0  ACCURACY: inf
STLB TIMELY PREFETCHES:        203 LATE PREFETCHES: 0 DROPPED PREFETCHES: 132797
STLB PREFETCHES SAME FILL-ORIGIN LEVEL: 0 DIFFERENT FILL-ORIGIN LEVEL: 0
STLB AVERAGE MISS LATENCY: 546.18 cycles
STLB RQ	ACCESS:    8186313	FORWARD:          0	MERGED:      13214	TO_CACHE:    8173099

STLB Hit, L1D data hit: 0
STLB Hit, L2C data hit: 0
STLB Hit, LLC data hit: 0
STLB Hit, LLC data miss: 0
STLB STLB hints to L2: 0
L1D TOTAL     ACCESS:   78954609  HIT:   64239420  MISS:   14715189  HIT %:    81.3625  MISS %:    18.6375   MPKI: 73.5759
L1D LOAD      ACCESS:   62711136  HIT:   49226511  MISS:   13484625  HIT %:    78.4972  MISS %:    21.5028   MPKI: 67.4231
L1D RFO       ACCESS:   16023724  HIT:   14810498  MISS:    1213226  HIT %:    92.4286  MISS %:    7.57144   MPKI: 6.06613
L1D PREFETCH  ACCESS:     219749  HIT:     202411  MISS:      17338  HIT %:    92.1101  MISS %:    7.88991   MPKI: 0.08669
L1D PREFETCH  REQUESTED:     912364  ISSUED:     912364  USEFUL:      11363  USELESS:       5975
L1D USEFUL LOAD PREFETCHES:      11363 PREFETCH ISSUED TO LOWER LEVEL:     108922  ACCURACY: 10.4322
L1D TIMELY PREFETCHES:      11363 LATE PREFETCHES: 142 DROPPED PREFETCHES: 133803
L1D PREFETCHES SAME FILL-ORIGIN LEVEL: 17480 DIFFERENT FILL-ORIGIN LEVEL: 91442
L1D AVERAGE MISS LATENCY: 29.2035 cycles
L1D RQ	ACCESS:   77832674	FORWARD:          0	MERGED:   14759100	TO_CACHE:   63035375
L1D WQ	ACCESS:   16211746	FORWARD:      38199	MERGED:     109051	TO_CACHE:   16102695
L1D PQ	ACCESS:     456182	FORWARD:          0	MERGED:          0	TO_CACHE:     456182

L1D UNIQUE REGIONS ACCESSED: 0
L1D REGIONS CONFLICTS: 0
L1D Cross Page Prefetch Requests: 364019
L1D Same Page Prefetch Requests: 227058
L1D ROI Sum of L1D PQ occupancy: 9545300
L1D PREFETCHES PUSHED FROM L2C: 0
L1I TOTAL     ACCESS:   31377929  HIT:   26177924  MISS:    5200005  HIT %:    83.4278  MISS %:    16.5722   MPKI: 26
L1I LOAD      ACCESS:   31377929  HIT:   26177924  MISS:    5200005  HIT %:    83.4278  MISS %:    16.5722   MPKI: 26
L1I PREFETCH  REQUESTED:          0  ISSUED:          0  USEFUL:          0  USELESS:          0
L1I USEFUL LOAD PREFETCHES:          0 PREFETCH ISSUED TO LOWER LEVEL:          0  ACCURACY: -nan
L1I TIMELY PREFETCHES:          0 LATE PREFETCHES: 0 DROPPED PREFETCHES: 0
L1I PREFETCHES SAME FILL-ORIGIN LEVEL: 0 DIFFERENT FILL-ORIGIN LEVEL: 0
L1I AVERAGE MISS LATENCY: 14.0729 cycles
L1I RQ	ACCESS:   47794490	FORWARD:          0	MERGED:   13767780	TO_CACHE:   34026710

BTB TOTAL     ACCESS:    1127062  HIT:    1054337  MISS:      72725  HIT %:    93.5474  MISS %:    6.45262   MPKI: 0.363625
BTB BRANCH_DIRECT_JUMP	ACCESS:     218098  HIT:     218093  MISS:          5
BTB BRANCH_INDIRECT	ACCESS:      36350  HIT:      36349  MISS:          1
BTB BRANCH_CONDITIONAL	ACCESS:     436418  HIT:     436406  MISS:         12
BTB BRANCH_DIRECT_CALL	ACCESS:     218098  HIT:     218093  MISS:          5
BTB BRANCH_INDIRECT_CALL	ACCESS:          0  HIT:          0  MISS:          0
BTB BRANCH_RETURN	ACCESS:     218098  HIT:     145396  MISS:      72702
BTB BRANCH_OTHER ACCESS:          0  HIT:          0  MISS:          0

L2C TOTAL     ACCESS:   21523617  HIT:   20463333  MISS:    1060284  HIT %:    95.0739  MISS %:    4.92614   MPKI: 5.30142
L2C LOAD      ACCESS:   18682874  HIT:   17769847  MISS:     913027  HIT %:     95.113  MISS %:    4.88697   MPKI: 4.56513
L2C DATA LOAD MPKI: 4.55633
L2C INSTRUCTION LOAD MPKI: 0.0088
L2C RFO       ACCESS:    1212957  HIT:    1095230  MISS:     117727  HIT %:    90.2942  MISS %:    9.70579   MPKI: 0.588635
L2C PREFETCH  ACCESS:     108852  HIT:      94854  MISS:      13998  HIT %:    87.1403  MISS %:    12.8597   MPKI: 0.06999
L2C DATA PREFETCH MPKI: 0.06999
L2C INSTRUCTION PREFETCH MPKI: 0
L2C WRITEBACK ACCESS:    1295370  HIT:    1292518  MISS:       2852  HIT %:    99.7798  MISS %:   0.220169   MPKI: 0.01426
L2C LOAD TRANSLATION ACCESS:      12611  HIT:        558  MISS:      12053  HIT %:    4.42471  MISS %:    95.5753   MPKI: 0.060265
L2C TRANSLATION FROM L1D PREFETCHER ACCESS:     210953  HIT:     210326  MISS:        627  HIT %:    99.7028  MISS %:   0.297223   MPKI: 0.003135
L2C PREFETCH  REQUESTED:          0  ISSUED:          0  USEFUL:       5363  USELESS:       9175
L2C USEFUL LOAD PREFETCHES:       5363 PREFETCH ISSUED TO LOWER LEVEL:      14029  ACCURACY: 38.228
L2C TIMELY PREFETCHES:       5363 LATE PREFETCHES: 31 DROPPED PREFETCHES: 0
L2C PREFETCHES SAME FILL-ORIGIN LEVEL: 13516 DIFFERENT FILL-ORIGIN LEVEL: 0
L2C AVERAGE MISS LATENCY: 193.482 cycles
L2C RQ	ACCESS:   20121279	FORWARD:          0	MERGED:          0	TO_CACHE:   20119396
L2C WQ	ACCESS:    1295370	FORWARD:       1917	MERGED:          0	TO_CACHE:    1295370
L2C PQ	ACCESS:     108922	FORWARD:          0	MERGED:          0	TO_CACHE:     108888

L2C Instructions Evicting Data 1526
L2C Translations Evicting Data 12585
L2C Data Evicting Data 1028908
L2C Instructions Evicting Instructions 222
L2C Translations Evicting Instructions 20
L2C Data Evicting Instructions 1513
L2C Instructions Evicting Translations 12
L2C Translations Evicting Translations 75
L2C Data Evicting Translations 12571
L2C Dense regions hint from L2: 0
PSCL5 TOTAL     ACCESS:     141336  HIT:     141336  MISS:          0  HIT %:        100  MISS %:          0   MPKI: 0
PSCL5 LOAD TRANSLATION ACCESS:       8336  HIT:       8336  MISS:          0  HIT %:        100  MISS %:          0   MPKI: 0
PSCL5 TRANSLATION FROM L1D PREFETCHER ACCESS:     133000  HIT:     133000  MISS:          0  HIT %:        100  MISS %:          0   MPKI: 0
PSCL5 PREFETCH  REQUESTED:          0  ISSUED:          0  USEFUL:          0  USELESS:          0
PSCL5 USEFUL LOAD PREFETCHES:          0 PREFETCH ISSUED TO LOWER LEVEL:          0  ACCURACY: -nan
PSCL5 TIMELY PREFETCHES:          0 LATE PREFETCHES: 0 DROPPED PREFETCHES: 0
PSCL5 PREFETCHES SAME FILL-ORIGIN LEVEL: 0 DIFFERENT FILL-ORIGIN LEVEL: 0

PSCL4 TOTAL     ACCESS:     141336  HIT:     141336  MISS:          0  HIT %:        100  MISS %:          0   MPKI: 0
PSCL4 LOAD TRANSLATION ACCESS:       8336  HIT:       8336  MISS:          0  HIT %:        100  MISS %:          0   MPKI: 0
PSCL4 TRANSLATION FROM L1D PREFETCHER ACCESS:     133000  HIT:     133000  MISS:          0  HIT %:        100  MISS %:          0   MPKI: 0
PSCL4 PREFETCH  REQUESTED:          0  ISSUED:          0  USEFUL:          0  USELESS:          0
PSCL4 USEFUL LOAD PREFETCHES:          0 PREFETCH ISSUED TO LOWER LEVEL:          0  ACCURACY: -nan
PSCL4 TIMELY PREFETCHES:          0 LATE PREFETCHES: 0 DROPPED PREFETCHES: 0
PSCL4 PREFETCHES SAME FILL-ORIGIN LEVEL: 0 DIFFERENT FILL-ORIGIN LEVEL: 0

PSCL3 TOTAL     ACCESS:     141336  HIT:     141336  MISS:          0  HIT %:        100  MISS %:          0   MPKI: 0
PSCL3 LOAD TRANSLATION ACCESS:       8336  HIT:       8336  MISS:          0  HIT %:        100  MISS %:          0   MPKI: 0
PSCL3 TRANSLATION FROM L1D PREFETCHER ACCESS:     133000  HIT:     133000  MISS:          0  HIT %:        100  MISS %:          0   MPKI: 0
PSCL3 PREFETCH  REQUESTED:          0  ISSUED:          0  USEFUL:          0  USELESS:          0
PSCL3 USEFUL LOAD PREFETCHES:          0 PREFETCH ISSUED TO LOWER LEVEL:          0  ACCURACY: -nan
PSCL3 TIMELY PREFETCHES:          0 LATE PREFETCHES: 0 DROPPED PREFETCHES: 0
PSCL3 PREFETCHES SAME FILL-ORIGIN LEVEL: 0 DIFFERENT FILL-ORIGIN LEVEL: 0

PSCL2 TOTAL     ACCESS:      33638  HIT:      29317  MISS:       4321  HIT %:    87.1544  MISS %:    12.8456   MPKI: 0.021605
PSCL2 LOAD TRANSLATION ACCESS:       8373  HIT:       4052  MISS:       4321  HIT %:    48.3936  MISS %:    51.6064   MPKI: 0.021605
PSCL2 TRANSLATION FROM L1D PREFETCHER ACCESS:      25265  HIT:      25265  MISS:          0  HIT %:        100  MISS %:          0   MPKI: 0
PSCL2 PREFETCH  REQUESTED:          0  ISSUED:          0  USEFUL:          0  USELESS:          0
PSCL2 USEFUL LOAD PREFETCHES:          0 PREFETCH ISSUED TO LOWER LEVEL:          0  ACCURACY: -nan
PSCL2 TIMELY PREFETCHES:          0 LATE PREFETCHES: 0 DROPPED PREFETCHES: 0
PSCL2 PREFETCHES SAME FILL-ORIGIN LEVEL: 0 DIFFERENT FILL-ORIGIN LEVEL: 0

LLC TOTAL     ACCESS:    1175457  HIT:     625045  MISS:     550412  HIT %:    53.1746  MISS %:    46.8254   MPKI: 2.75206
LLC LOAD      ACCESS:     912996  HIT:     495827  MISS:     417169  HIT %:    54.3077  MISS %:    45.6923   MPKI: 2.08584
LLC RFO       ACCESS:     117725  HIT:         25  MISS:     117700  HIT %:  0.0212359  MISS %:    99.9788   MPKI: 0.5885
LLC PREFETCH  ACCESS:      14029  HIT:       1674  MISS:      12355  HIT %:    11.9324  MISS %:    88.0676   MPKI: 0.061775
LLC WRITEBACK ACCESS:     118027  HIT:     116105  MISS:       1922  HIT %:    98.3716  MISS %:    1.62844   MPKI: 0.00961
LLC LOAD TRANSLATION ACCESS:      12053  HIT:      10869  MISS:       1184  HIT %:    90.1767  MISS %:    9.82328   MPKI: 0.00592
LLC TRANSLATION FROM L1D PREFETCHER ACCESS:        627  HIT:        545  MISS:         82  HIT %:    86.9219  MISS %:    13.0781   MPKI: 0.00041
LLC PREFETCH  REQUESTED:          0  ISSUED:          0  USEFUL:       6321  USELESS:       5970
LLC USEFUL LOAD PREFETCHES:       6321 PREFETCH ISSUED TO LOWER LEVEL:      12355  ACCURACY: 51.1615
LLC TIMELY PREFETCHES:       6321 LATE PREFETCHES: 0 DROPPED PREFETCHES: 0
LLC PREFETCHES SAME FILL-ORIGIN LEVEL: 0 DIFFERENT FILL-ORIGIN LEVEL: 0
LLC AVERAGE MISS LATENCY: 314.313 cycles
LLC RQ	ACCESS:    1043403	FORWARD:          0	MERGED:          0	TO_CACHE:    1043401
LLC WQ	ACCESS:     118027	FORWARD:          2	MERGED:          0	TO_CACHE:     118027
LLC PQ	ACCESS:      14029	FORWARD:          0	MERGED:          0	TO_CACHE:      14029

LLC Dense regions hint to LLC: 0

RAW hits: 539324
Loads Generated: 78371999
Loads sent to L1D: 77832674
Stores Generated: 16212582
Stores sent to L1D: 16212582
Major fault: 0 Minor fault: 8463
Allocated PAGES: 8463

DRAM Statistics
 CHANNEL 0
 RQ ROW_BUFFER_HIT:     278049  ROW_BUFFER_MISS:     270441
 DBUS_CONGESTED:        258
 WQ ROW_BUFFER_HIT:      36459  ROW_BUFFER_MISS:      81042  FULL:          0

 AVG_CONGESTED_CYCLE: 5
 All warmup complete: 2
Channel 0 Bank busy for read cycles: 0
Channel 0 Bank busy for write cycles: 0
Channel 0
Rank 0
0banks busy for read cycles: 181579030
0banks busy for write cycles: 51669
1banks busy for read cycles: 26988238
1banks busy for write cycles: 9188220
2banks busy for read cycles: 5534806
2banks busy for write cycles: 2341887
3banks busy for read cycles: 2764767
3banks busy for write cycles: 2158561
4banks busy for read cycles: 568123
4banks busy for write cycles: 638410
5banks busy for read cycles: 589690
5banks busy for write cycles: 351709
6banks busy for read cycles: 344362
6banks busy for write cycles: 288651
7banks busy for read cycles: 118549
7banks busy for write cycles: 108157
8banks busy for read cycles: 302
8banks busy for write cycles: 7774

CPU 0 Branch Prediction Accuracy: 99.9796% MPKI: 0.001115 Average ROB Occupancy at Mispredict: 37.6188
Branch types
NOT_BRANCH: 198218197 99.1091%
BRANCH_DIRECT_JUMP: 218098 0.109049%
BRANCH_INDIRECT: 36350 0.018175%
BRANCH_CONDITIONAL: 1090933 0.545466%
BRANCH_DIRECT_CALL: 218098 0.109049%
BRANCH_INDIRECT_CALL: 0 0%
BRANCH_RETURN: 218098 0.109049%
BRANCH_OTHER: 0 0%

DRAM PAGES: 1048576
Allocated PAGES: 8463
