
*** ChampSim Multicore Out-of-Order Simulator ***

Warmup Instructions: 50000000
Simulation Instructions: 200000000
Number of CPUs: 1
LLC sets: 2048
LLC ways: 16
Off-chip DRAM Size: 4096 MB Channels: 1 Width: 64-bit Data Rate: 6400 MT/s
argv[0]: ./ChampSim/Berti/bin/multiperspective_perceptron8kb-no-vberti-no-no-no-no-no-lru-lru-lru-srrip-drrip-lru-lru-lru-1core-no
argv[1]: -warmup_instructions
argv[2]: 50000000
argv[3]: -simulation_instructions
argv[4]: 200000000
argv[5]: -traces
argv[6]: traces/spec2k17_ten/607.cactuBSSN_s-4248B.champsimtrace.xz
CPU 0 runs traces/spec2k17_ten/607.cactuBSSN_s-4248B.champsimtrace.xz
.xz
CPU 0 Multiperspective perceptron branch predictor
BTB has LRU replacement policy
ITLB has LRU replacement policy
DTLB has LRU replacement policy
STLB has LRU replacement policy
L1I has LRU replacement policy
History Sets: 8
History Ways: 16
BERTI Size: 16
BERTI Stride Size: 16
L1D has LRU replacement policy
Initialize SRRIP state for L2C
Initialize DRRIP state for LLC
Heartbeat CPU 0 instructions: 10000003 cycles: 2722099 heartbeat IPC: 3.67364 cumulative IPC: 3.67364 (Simulation time: 0 hr 9 min 45 sec) 
Heartbeat CPU 0 instructions: 20000001 cycles: 5444200 heartbeat IPC: 3.67363 cumulative IPC: 3.67363 (Simulation time: 0 hr 16 min 1 sec) 
Heartbeat CPU 0 instructions: 30000001 cycles: 8166261 heartbeat IPC: 3.67369 cumulative IPC: 3.67365 (Simulation time: 0 hr 21 min 4 sec) 
Heartbeat CPU 0 instructions: 40000003 cycles: 10888317 heartbeat IPC: 3.67369 cumulative IPC: 3.67366 (Simulation time: 0 hr 26 min 12 sec) 
Heartbeat CPU 0 instructions: 50000001 cycles: 13610442 heartbeat IPC: 3.6736 cumulative IPC: 3.67365 (Simulation time: 0 hr 31 min 37 sec) 

Warmup complete CPU 0 instructions: 50000001 cycles: 13610442 (Simulation time: 0 hr 31 min 37 sec) 

Heartbeat CPU 0 instructions: 60000002 cycles: 23613575 heartbeat IPC: 0.999687 cumulative IPC: 0.999687 (Simulation time: 0 hr 37 min 36 sec) 
Heartbeat CPU 0 instructions: 70000000 cycles: 33731370 heartbeat IPC: 0.988357 cumulative IPC: 0.99399 (Simulation time: 0 hr 43 min 54 sec) 
Heartbeat CPU 0 instructions: 80000000 cycles: 43848787 heartbeat IPC: 0.988395 cumulative IPC: 0.992118 (Simulation time: 0 hr 49 min 30 sec) 
Heartbeat CPU 0 instructions: 90000002 cycles: 53966160 heartbeat IPC: 0.988399 cumulative IPC: 0.991185 (Simulation time: 0 hr 56 min 38 sec) 
Heartbeat CPU 0 instructions: 100000001 cycles: 64083634 heartbeat IPC: 0.988389 cumulative IPC: 0.990625 (Simulation time: 1 hr 3 min 19 sec) 
Heartbeat CPU 0 instructions: 110000000 cycles: 74200974 heartbeat IPC: 0.988402 cumulative IPC: 0.990254 (Simulation time: 1 hr 10 min 24 sec) 
Heartbeat CPU 0 instructions: 120000003 cycles: 84318175 heartbeat IPC: 0.988416 cumulative IPC: 0.989991 (Simulation time: 1 hr 16 min 59 sec) 
Heartbeat CPU 0 instructions: 130000003 cycles: 94435720 heartbeat IPC: 0.988382 cumulative IPC: 0.989789 (Simulation time: 1 hr 21 min 19 sec) 
Heartbeat CPU 0 instructions: 140000000 cycles: 104553000 heartbeat IPC: 0.988408 cumulative IPC: 0.989636 (Simulation time: 1 hr 27 min 14 sec) 
Heartbeat CPU 0 instructions: 150000003 cycles: 114670412 heartbeat IPC: 0.988395 cumulative IPC: 0.989511 (Simulation time: 1 hr 33 min 35 sec) 
Heartbeat CPU 0 instructions: 160000002 cycles: 124787795 heartbeat IPC: 0.988398 cumulative IPC: 0.98941 (Simulation time: 1 hr 38 min 19 sec) 
Heartbeat CPU 0 instructions: 170000000 cycles: 134905022 heartbeat IPC: 0.988413 cumulative IPC: 0.989327 (Simulation time: 1 hr 44 min 46 sec) 
Heartbeat CPU 0 instructions: 180000000 cycles: 145022530 heartbeat IPC: 0.988386 cumulative IPC: 0.989254 (Simulation time: 1 hr 51 min 22 sec) 
Heartbeat CPU 0 instructions: 190000002 cycles: 155140019 heartbeat IPC: 0.988388 cumulative IPC: 0.989193 (Simulation time: 1 hr 56 min 20 sec) 
Heartbeat CPU 0 instructions: 200000000 cycles: 165257633 heartbeat IPC: 0.988375 cumulative IPC: 0.989138 (Simulation time: 2 hr 2 min 47 sec) 
Heartbeat CPU 0 instructions: 210000000 cycles: 175374967 heartbeat IPC: 0.988403 cumulative IPC: 0.989092 (Simulation time: 2 hr 7 min 53 sec) 
Heartbeat CPU 0 instructions: 220000000 cycles: 185492051 heartbeat IPC: 0.988427 cumulative IPC: 0.989053 (Simulation time: 2 hr 12 min 30 sec) 
Heartbeat CPU 0 instructions: 230000002 cycles: 195609594 heartbeat IPC: 0.988382 cumulative IPC: 0.989016 (Simulation time: 2 hr 17 min 10 sec) 
Heartbeat CPU 0 instructions: 240000001 cycles: 205726893 heartbeat IPC: 0.988406 cumulative IPC: 0.988984 (Simulation time: 2 hr 23 min 46 sec) 
Heartbeat CPU 0 instructions: 250000003 cycles: 215844464 heartbeat IPC: 0.98838 cumulative IPC: 0.988953 (Simulation time: 2 hr 29 min 40 sec) 
Finished CPU 0 instructions: 200000002 cycles: 202234022 cumulative IPC: 0.988953 (Simulation time: 2 hr 29 min 40 sec) 

ChampSim completed all CPUs

Region of Interest Statistics

CPU 0 cumulative IPC: 0.988953 instructions: 200000002 cycles: 202234022
ITLB TOTAL     ACCESS:   27846620  HIT:   27846583  MISS:         37  HIT %:    99.9999  MISS %: 0.000132871   MPKI: 0.000185
ITLB LOAD TRANSLATION ACCESS:   27846620  HIT:   27846583  MISS:         37  HIT %:    99.9999  MISS %: 0.000132871   MPKI: 0.000185
ITLB PREFETCH  REQUESTED:          0  ISSUED:          0  USEFUL:          0  USELESS:          0
ITLB USEFUL LOAD PREFETCHES:          0 PREFETCH ISSUED TO LOWER LEVEL:          0  ACCURACY: -nan
ITLB TIMELY PREFETCHES:          0 LATE PREFETCHES: 0 DROPPED PREFETCHES: 0
ITLB PREFETCHES SAME FILL-ORIGIN LEVEL: 0 DIFFERENT FILL-ORIGIN LEVEL: 0
ITLB AVERAGE MISS LATENCY: 242.054 cycles
ITLB RQ	ACCESS:   37178219	FORWARD:          0	MERGED:    9331596	TO_CACHE:   27846623

DTLB TOTAL     ACCESS:   25590367  HIT:   25587313  MISS:       3054  HIT %:    99.9881  MISS %:  0.0119342   MPKI: 0.01527
DTLB LOAD TRANSLATION ACCESS:   25590367  HIT:   25587313  MISS:       3054  HIT %:    99.9881  MISS %:  0.0119342   MPKI: 0.01527
DTLB PREFETCH  REQUESTED:          0  ISSUED:          0  USEFUL:          0  USELESS:          0
DTLB USEFUL LOAD PREFETCHES:          0 PREFETCH ISSUED TO LOWER LEVEL:          0  ACCURACY: -nan
DTLB TIMELY PREFETCHES:          0 LATE PREFETCHES: 0 DROPPED PREFETCHES: 0
DTLB PREFETCHES SAME FILL-ORIGIN LEVEL: 0 DIFFERENT FILL-ORIGIN LEVEL: 0
DTLB AVERAGE MISS LATENCY: 121.365 cycles
DTLB RQ	ACCESS:   36119760	FORWARD:          0	MERGED:   10529392	TO_CACHE:   25590368

STLB TOTAL     ACCESS:    1527066  HIT:    1523975  MISS:       3091  HIT %:    99.7976  MISS %:   0.202414   MPKI: 0.015455
STLB LOAD TRANSLATION ACCESS:       3091  HIT:          0  MISS:       3091  HIT %:          0  MISS %:        100   MPKI: 0.015455
STLB TRANSLATION FROM L1D PREFETCHER ACCESS:    1523975  HIT:    1523975  MISS:          0  HIT %:        100  MISS %:          0   MPKI: 0
STLB PREFETCH  REQUESTED:          0  ISSUED:          0  USEFUL:          0  USELESS:          0
STLB USEFUL LOAD PREFETCHES:          0 PREFETCH ISSUED TO LOWER LEVEL:          0  ACCURACY: -nan
STLB TIMELY PREFETCHES:          0 LATE PREFETCHES: 0 DROPPED PREFETCHES: 355233
STLB PREFETCHES SAME FILL-ORIGIN LEVEL: 0 DIFFERENT FILL-ORIGIN LEVEL: 0
STLB AVERAGE MISS LATENCY: 113.81 cycles
STLB RQ	ACCESS:   12458268	FORWARD:          0	MERGED:   10575969	TO_CACHE:    1882299

STLB Hit, L1D data hit: 0
STLB Hit, L2C data hit: 0
STLB Hit, LLC data hit: 0
STLB Hit, LLC data miss: 0
STLB STLB hints to L2: 0
L1D TOTAL     ACCESS:   47000387  HIT:   46806696  MISS:     193691  HIT %:    99.5879  MISS %:   0.412105   MPKI: 0.968455
L1D LOAD      ACCESS:   29906709  HIT:   29903527  MISS:       3182  HIT %:    99.9894  MISS %:  0.0106398   MPKI: 0.01591
L1D RFO       ACCESS:    6212970  HIT:    6212957  MISS:         13  HIT %:    99.9998  MISS %: 0.00020924   MPKI: 6.5e-05
L1D PREFETCH  ACCESS:   10880708  HIT:   10690212  MISS:     190496  HIT %:    98.2492  MISS %:    1.75077   MPKI: 0.95248
L1D PREFETCH  REQUESTED:   24910819  ISSUED:   24910819  USEFUL:     190492  USELESS:         13
L1D USEFUL LOAD PREFETCHES:     190492 PREFETCH ISSUED TO LOWER LEVEL:     708206  ACCURACY: 26.8978
L1D TIMELY PREFETCHES:     190492 LATE PREFETCHES: 0 DROPPED PREFETCHES: 1042048
L1D PREFETCHES SAME FILL-ORIGIN LEVEL: 190496 DIFFERENT FILL-ORIGIN LEVEL: 517710
L1D AVERAGE MISS LATENCY: 94.1984 cycles
L1D RQ	ACCESS:   35797721	FORWARD:          0	MERGED:    5844433	TO_CACHE:   29906777
L1D WQ	ACCESS:    6213003	FORWARD:      46511	MERGED:         20	TO_CACHE:    6212983
L1D PQ	ACCESS:   12455642	FORWARD:          0	MERGED:        465	TO_CACHE:   12455177

L1D UNIQUE REGIONS ACCESSED: 0
L1D REGIONS CONFLICTS: 0
L1D Cross Page Prefetch Requests: 1293608
L1D Same Page Prefetch Requests: 14105634
L1D ROI Sum of L1D PQ occupancy: 203593677
L1D PREFETCHES PUSHED FROM L2C: 0
L1I TOTAL     ACCESS:   37178189  HIT:   37177951  MISS:        238  HIT %:    99.9994  MISS %: 0.00064016   MPKI: 0.00119
L1I LOAD      ACCESS:   37178189  HIT:   37177951  MISS:        238  HIT %:    99.9994  MISS %: 0.00064016   MPKI: 0.00119
L1I PREFETCH  REQUESTED:          0  ISSUED:          0  USEFUL:          0  USELESS:          0
L1I USEFUL LOAD PREFETCHES:          0 PREFETCH ISSUED TO LOWER LEVEL:          0  ACCURACY: -nan
L1I TIMELY PREFETCHES:          0 LATE PREFETCHES: 0 DROPPED PREFETCHES: 0
L1I PREFETCHES SAME FILL-ORIGIN LEVEL: 0 DIFFERENT FILL-ORIGIN LEVEL: 0
L1I AVERAGE MISS LATENCY: 182.546 cycles
L1I RQ	ACCESS:   48107324	FORWARD:          0	MERGED:   10929105	TO_CACHE:   37178219

BTB TOTAL     ACCESS:   17059568  HIT:   17059095  MISS:        473  HIT %:    99.9972  MISS %: 0.00277264   MPKI: 0.002365
BTB BRANCH_DIRECT_JUMP	ACCESS:    3105675  HIT:    3105639  MISS:         36
BTB BRANCH_INDIRECT	ACCESS:         15  HIT:          6  MISS:          9
BTB BRANCH_CONDITIONAL	ACCESS:   13953111  HIT:   13953004  MISS:        107
BTB BRANCH_DIRECT_CALL	ACCESS:        383  HIT:        257  MISS:        126
BTB BRANCH_INDIRECT_CALL	ACCESS:          0  HIT:          0  MISS:          0
BTB BRANCH_RETURN	ACCESS:        383  HIT:        189  MISS:        194
BTB BRANCH_OTHER ACCESS:          1  HIT:          0  MISS:          1

L2C TOTAL     ACCESS:    1068303  HIT:     873940  MISS:     194363  HIT %:    81.8064  MISS %:    18.1936   MPKI: 0.971815
L2C LOAD      ACCESS:       3420  HIT:         11  MISS:       3409  HIT %:   0.321637  MISS %:    99.6784   MPKI: 0.017045
L2C DATA LOAD MPKI: 0.015855
L2C INSTRUCTION LOAD MPKI: 0.00119
L2C RFO       ACCESS:         13  HIT:          2  MISS:         11  HIT %:    15.3846  MISS %:    84.6154   MPKI: 5.5e-05
L2C PREFETCH  ACCESS:     706486  HIT:     515973  MISS:     190513  HIT %:    73.0337  MISS %:    26.9663   MPKI: 0.952565
L2C DATA PREFETCH MPKI: 0.952565
L2C INSTRUCTION PREFETCH MPKI: 0
L2C WRITEBACK ACCESS:         60  HIT:         54  MISS:          6  HIT %:         90  MISS %:         10   MPKI: 3e-05
L2C LOAD TRANSLATION ACCESS:       3091  HIT:       3054  MISS:         37  HIT %:     98.803  MISS %:    1.19702   MPKI: 0.000185
L2C TRANSLATION FROM L1D PREFETCHER ACCESS:     355233  HIT:     354846  MISS:        387  HIT %:    99.8911  MISS %:   0.108943   MPKI: 0.001935
L2C PREFETCH  REQUESTED:          0  ISSUED:          0  USEFUL:        398  USELESS:     190498
L2C USEFUL LOAD PREFETCHES:        398 PREFETCH ISSUED TO LOWER LEVEL:     190517  ACCURACY: 0.208905
L2C TIMELY PREFETCHES:        398 LATE PREFETCHES: 4 DROPPED PREFETCHES: 0
L2C PREFETCHES SAME FILL-ORIGIN LEVEL: 43825 DIFFERENT FILL-ORIGIN LEVEL: 0
L2C AVERAGE MISS LATENCY: 102.542 cycles
L2C RQ	ACCESS:     361757	FORWARD:          0	MERGED:          0	TO_CACHE:     361757
L2C WQ	ACCESS:         60	FORWARD:          0	MERGED:          0	TO_CACHE:         60
L2C PQ	ACCESS:     708206	FORWARD:          0	MERGED:          0	TO_CACHE:     708206

L2C Instructions Evicting Data 238
L2C Translations Evicting Data 424
L2C Data Evicting Data 193030
L2C Instructions Evicting Instructions 0
L2C Translations Evicting Instructions 0
L2C Data Evicting Instructions 238
L2C Instructions Evicting Translations 0
L2C Translations Evicting Translations 0
L2C Data Evicting Translations 427
L2C Dense regions hint from L2: 0
PSCL5 TOTAL     ACCESS:     358324  HIT:     358324  MISS:          0  HIT %:        100  MISS %:          0   MPKI: 0
PSCL5 LOAD TRANSLATION ACCESS:       3091  HIT:       3091  MISS:          0  HIT %:        100  MISS %:          0   MPKI: 0
PSCL5 TRANSLATION FROM L1D PREFETCHER ACCESS:     355233  HIT:     355233  MISS:          0  HIT %:        100  MISS %:          0   MPKI: 0
PSCL5 PREFETCH  REQUESTED:          0  ISSUED:          0  USEFUL:          0  USELESS:          0
PSCL5 USEFUL LOAD PREFETCHES:          0 PREFETCH ISSUED TO LOWER LEVEL:          0  ACCURACY: -nan
PSCL5 TIMELY PREFETCHES:          0 LATE PREFETCHES: 0 DROPPED PREFETCHES: 0
PSCL5 PREFETCHES SAME FILL-ORIGIN LEVEL: 0 DIFFERENT FILL-ORIGIN LEVEL: 0

PSCL4 TOTAL     ACCESS:     358324  HIT:     358324  MISS:          0  HIT %:        100  MISS %:          0   MPKI: 0
PSCL4 LOAD TRANSLATION ACCESS:       3091  HIT:       3091  MISS:          0  HIT %:        100  MISS %:          0   MPKI: 0
PSCL4 TRANSLATION FROM L1D PREFETCHER ACCESS:     355233  HIT:     355233  MISS:          0  HIT %:        100  MISS %:          0   MPKI: 0
PSCL4 PREFETCH  REQUESTED:          0  ISSUED:          0  USEFUL:          0  USELESS:          0
PSCL4 USEFUL LOAD PREFETCHES:          0 PREFETCH ISSUED TO LOWER LEVEL:          0  ACCURACY: -nan
PSCL4 TIMELY PREFETCHES:          0 LATE PREFETCHES: 0 DROPPED PREFETCHES: 0
PSCL4 PREFETCHES SAME FILL-ORIGIN LEVEL: 0 DIFFERENT FILL-ORIGIN LEVEL: 0

PSCL3 TOTAL     ACCESS:     358324  HIT:     358324  MISS:          0  HIT %:        100  MISS %:          0   MPKI: 0
PSCL3 LOAD TRANSLATION ACCESS:       3091  HIT:       3091  MISS:          0  HIT %:        100  MISS %:          0   MPKI: 0
PSCL3 TRANSLATION FROM L1D PREFETCHER ACCESS:     355233  HIT:     355233  MISS:          0  HIT %:        100  MISS %:          0   MPKI: 0
PSCL3 PREFETCH  REQUESTED:          0  ISSUED:          0  USEFUL:          0  USELESS:          0
PSCL3 USEFUL LOAD PREFETCHES:          0 PREFETCH ISSUED TO LOWER LEVEL:          0  ACCURACY: -nan
PSCL3 TIMELY PREFETCHES:          0 LATE PREFETCHES: 0 DROPPED PREFETCHES: 0
PSCL3 PREFETCHES SAME FILL-ORIGIN LEVEL: 0 DIFFERENT FILL-ORIGIN LEVEL: 0

PSCL2 TOTAL     ACCESS:     357494  HIT:     357481  MISS:         13  HIT %:    99.9964  MISS %: 0.00363642   MPKI: 6.5e-05
PSCL2 LOAD TRANSLATION ACCESS:       3091  HIT:       3078  MISS:         13  HIT %:    99.5794  MISS %:   0.420576   MPKI: 6.5e-05
PSCL2 TRANSLATION FROM L1D PREFETCHER ACCESS:     354403  HIT:     354403  MISS:          0  HIT %:        100  MISS %:          0   MPKI: 0
PSCL2 PREFETCH  REQUESTED:          0  ISSUED:          0  USEFUL:          0  USELESS:          0
PSCL2 USEFUL LOAD PREFETCHES:          0 PREFETCH ISSUED TO LOWER LEVEL:          0  ACCURACY: -nan
PSCL2 TIMELY PREFETCHES:          0 LATE PREFETCHES: 0 DROPPED PREFETCHES: 0
PSCL2 PREFETCHES SAME FILL-ORIGIN LEVEL: 0 DIFFERENT FILL-ORIGIN LEVEL: 0

LLC TOTAL     ACCESS:     194415  HIT:         56  MISS:     194359  HIT %:  0.0288044  MISS %:    99.9712   MPKI: 0.971795
LLC LOAD      ACCESS:       3405  HIT:          0  MISS:       3405  HIT %:          0  MISS %:        100   MPKI: 0.017025
LLC RFO       ACCESS:         11  HIT:          0  MISS:         11  HIT %:          0  MISS %:        100   MPKI: 5.5e-05
LLC PREFETCH  ACCESS:     190517  HIT:          0  MISS:     190517  HIT %:          0  MISS %:        100   MPKI: 0.952585
LLC WRITEBACK ACCESS:         58  HIT:         51  MISS:          7  HIT %:     87.931  MISS %:     12.069   MPKI: 3.5e-05
LLC LOAD TRANSLATION ACCESS:         37  HIT:          0  MISS:         37  HIT %:          0  MISS %:        100   MPKI: 0.000185
LLC TRANSLATION FROM L1D PREFETCHER ACCESS:        387  HIT:          5  MISS:        382  HIT %:    1.29199  MISS %:     98.708   MPKI: 0.00191
LLC PREFETCH  REQUESTED:          0  ISSUED:          0  USEFUL:          2  USELESS:     190806
LLC USEFUL LOAD PREFETCHES:          2 PREFETCH ISSUED TO LOWER LEVEL:     190517  ACCURACY: 0.00104978
LLC TIMELY PREFETCHES:          2 LATE PREFETCHES: 0 DROPPED PREFETCHES: 0
LLC PREFETCHES SAME FILL-ORIGIN LEVEL: 0 DIFFERENT FILL-ORIGIN LEVEL: 0
LLC AVERAGE MISS LATENCY: 72.5422 cycles
LLC RQ	ACCESS:       3840	FORWARD:          0	MERGED:          0	TO_CACHE:       3840
LLC WQ	ACCESS:         58	FORWARD:          0	MERGED:          0	TO_CACHE:         58
LLC PQ	ACCESS:     190517	FORWARD:          0	MERGED:          0	TO_CACHE:     190517

LLC Dense regions hint to LLC: 0

RAW hits: 1504254
Loads Generated: 37301976
Loads sent to L1D: 35797721
Stores Generated: 6213002
Stores sent to L1D: 6213003
Major fault: 0 Minor fault: 3840
Allocated PAGES: 3840

DRAM Statistics
 CHANNEL 0
 RQ ROW_BUFFER_HIT:     191573  ROW_BUFFER_MISS:       2779
 DBUS_CONGESTED:          0
 WQ ROW_BUFFER_HIT:          0  ROW_BUFFER_MISS:         57  FULL:          0

 AVG_CONGESTED_CYCLE: -
 All warmup complete: 2
Channel 0 Bank busy for read cycles: 0
Channel 0 Bank busy for write cycles: 0
Channel 0
Rank 0
0banks busy for read cycles: 194840657
0banks busy for write cycles: 55
1banks busy for read cycles: 5790921
1banks busy for write cycles: 8102
2banks busy for read cycles: 1408135
2banks busy for write cycles: 2
3banks busy for read cycles: 6692
3banks busy for write cycles: 148
4banks busy for read cycles: 6297
4banks busy for write cycles: 0
5banks busy for read cycles: 6183
5banks busy for write cycles: 0
6banks busy for read cycles: 6138
6banks busy for write cycles: 0
7banks busy for read cycles: 10242
7banks busy for write cycles: 0
8banks busy for read cycles: 150451
8banks busy for write cycles: 0

CPU 0 Branch Prediction Accuracy: 99.9568% MPKI: 0.046925 Average ROB Occupancy at Mispredict: 49.3291
Branch types
NOT_BRANCH: 175188146 87.5941%
BRANCH_DIRECT_JUMP: 3105675 1.55284%
BRANCH_INDIRECT: 15 7.5e-06%
BRANCH_CONDITIONAL: 21705086 10.8525%
BRANCH_DIRECT_CALL: 383 0.0001915%
BRANCH_INDIRECT_CALL: 0 0%
BRANCH_RETURN: 383 0.0001915%
BRANCH_OTHER: 1 5e-07%

DRAM PAGES: 1048576
Allocated PAGES: 3840
