526208 bits of metadata so far, 405638 left out of 526336 total budget
table size is 13521 bits, 2253 entries for 5 bit, 1931 entries for 6 bit
526208 total bits (64.23KB)

*** ChampSim Multicore Out-of-Order Simulator ***

Warmup Instructions: 50000000
Simulation Instructions: 200000000
Number of CPUs: 1
LLC sets: 2048
LLC ways: 16
Off-chip DRAM Size: 4096 MB Channels: 1 Width: 64-bit Data Rate: 6400 MT/s
argv[0]: ./ChampSim/Berti/bin/multiperspective_perceptron-no-vberti-no-no-no-no-no-lru-lru-lru-srrip-drrip-lru-lru-lru-1core-no
argv[1]: -warmup_instructions
argv[2]: 50000000
argv[3]: -simulation_instructions
argv[4]: 200000000
argv[5]: -traces
argv[6]: traces/spec2k17_ten/654.roms_s-1021B.champsimtrace.xz
CPU 0 runs traces/spec2k17_ten/654.roms_s-1021B.champsimtrace.xz
.xz
CPU 0 Multiperspective perceptron branch predictor
BTB has LRU replacement policy
ITLB has LRU replacement policy
DTLB has LRU replacement policy
STLB has LRU replacement policy
L1I has LRU replacement policy
History Sets: 8
History Ways: 16
BERTI Size: 16
BERTI Stride Size: 16
L1D has LRU replacement policy
Initialize SRRIP state for L2C
Initialize DRRIP state for LLC
Heartbeat CPU 0 instructions: 10000000 cycles: 2767003 heartbeat IPC: 3.61402 cumulative IPC: 3.61402 (Simulation time: 0 hr 4 min 29 sec) 
Heartbeat CPU 0 instructions: 20000003 cycles: 5533196 heartbeat IPC: 3.61508 cumulative IPC: 3.61455 (Simulation time: 0 hr 10 min 26 sec) 
Heartbeat CPU 0 instructions: 30000000 cycles: 8299534 heartbeat IPC: 3.61489 cumulative IPC: 3.61466 (Simulation time: 0 hr 16 min 8 sec) 
Heartbeat CPU 0 instructions: 40000003 cycles: 11065750 heartbeat IPC: 3.61505 cumulative IPC: 3.61476 (Simulation time: 0 hr 18 min 7 sec) 
Heartbeat CPU 0 instructions: 50000001 cycles: 13832067 heartbeat IPC: 3.61491 cumulative IPC: 3.61479 (Simulation time: 0 hr 20 min 51 sec) 

Warmup complete CPU 0 instructions: 50000001 cycles: 13832067 (Simulation time: 0 hr 20 min 51 sec) 

Heartbeat CPU 0 instructions: 60000001 cycles: 27278907 heartbeat IPC: 0.743669 cumulative IPC: 0.743669 (Simulation time: 0 hr 25 min 41 sec) 
Heartbeat CPU 0 instructions: 70000000 cycles: 40726354 heartbeat IPC: 0.743635 cumulative IPC: 0.743652 (Simulation time: 0 hr 30 min 17 sec) 
Heartbeat CPU 0 instructions: 80000000 cycles: 54173770 heartbeat IPC: 0.743637 cumulative IPC: 0.743647 (Simulation time: 0 hr 34 min 19 sec) 
Heartbeat CPU 0 instructions: 90000002 cycles: 67618194 heartbeat IPC: 0.743803 cumulative IPC: 0.743686 (Simulation time: 0 hr 38 min 13 sec) 
Heartbeat CPU 0 instructions: 100000000 cycles: 81067646 heartbeat IPC: 0.743525 cumulative IPC: 0.743654 (Simulation time: 0 hr 42 min 33 sec) 
Heartbeat CPU 0 instructions: 110000000 cycles: 93993339 heartbeat IPC: 0.773653 cumulative IPC: 0.748491 (Simulation time: 0 hr 47 min 34 sec) 
Heartbeat CPU 0 instructions: 120000002 cycles: 106582137 heartbeat IPC: 0.794357 cumulative IPC: 0.754716 (Simulation time: 0 hr 54 min 31 sec) 
Heartbeat CPU 0 instructions: 130000002 cycles: 119862282 heartbeat IPC: 0.753004 cumulative IPC: 0.754502 (Simulation time: 1 hr 1 min 34 sec) 
Heartbeat CPU 0 instructions: 140000003 cycles: 132519483 heartbeat IPC: 0.790064 cumulative IPC: 0.758294 (Simulation time: 1 hr 7 min 6 sec) 
Heartbeat CPU 0 instructions: 150000000 cycles: 145553702 heartbeat IPC: 0.767211 cumulative IPC: 0.759177 (Simulation time: 1 hr 12 min 24 sec) 
Heartbeat CPU 0 instructions: 160000000 cycles: 159064991 heartbeat IPC: 0.740122 cumulative IPC: 0.757404 (Simulation time: 1 hr 16 min 31 sec) 
Heartbeat CPU 0 instructions: 170000000 cycles: 172568603 heartbeat IPC: 0.740543 cumulative IPC: 0.75597 (Simulation time: 1 hr 20 min 51 sec) 
Heartbeat CPU 0 instructions: 180000000 cycles: 186070854 heartbeat IPC: 0.740617 cumulative IPC: 0.754766 (Simulation time: 1 hr 25 min 22 sec) 
Heartbeat CPU 0 instructions: 190000002 cycles: 199572787 heartbeat IPC: 0.740635 cumulative IPC: 0.753739 (Simulation time: 1 hr 29 min 26 sec) 
Heartbeat CPU 0 instructions: 200000002 cycles: 213072791 heartbeat IPC: 0.740741 cumulative IPC: 0.752858 (Simulation time: 1 hr 32 min 55 sec) 
Heartbeat CPU 0 instructions: 210000000 cycles: 226575989 heartbeat IPC: 0.740565 cumulative IPC: 0.752078 (Simulation time: 1 hr 35 min 53 sec) 
Heartbeat CPU 0 instructions: 220000000 cycles: 240078389 heartbeat IPC: 0.740609 cumulative IPC: 0.751393 (Simulation time: 1 hr 39 min 2 sec) 
Heartbeat CPU 0 instructions: 230000000 cycles: 253579729 heartbeat IPC: 0.740667 cumulative IPC: 0.750789 (Simulation time: 1 hr 42 min 6 sec) 
Heartbeat CPU 0 instructions: 240000003 cycles: 267080477 heartbeat IPC: 0.7407 cumulative IPC: 0.750252 (Simulation time: 1 hr 44 min 30 sec) 
Heartbeat CPU 0 instructions: 250000002 cycles: 280584731 heartbeat IPC: 0.740507 cumulative IPC: 0.749758 (Simulation time: 1 hr 46 min 51 sec) 
Finished CPU 0 instructions: 200000001 cycles: 266752664 cumulative IPC: 0.749758 (Simulation time: 1 hr 46 min 51 sec) 

ChampSim completed all CPUs

Region of Interest Statistics

CPU 0 cumulative IPC: 0.749758 instructions: 200000001 cycles: 266752664
ITLB TOTAL     ACCESS:   31173350  HIT:   31173348  MISS:          2  HIT %:        100  MISS %: 6.41574e-06   MPKI: 1e-05
ITLB LOAD TRANSLATION ACCESS:   31173350  HIT:   31173348  MISS:          2  HIT %:        100  MISS %: 6.41574e-06   MPKI: 1e-05
ITLB PREFETCH  REQUESTED:          0  ISSUED:          0  USEFUL:          0  USELESS:          0
ITLB USEFUL LOAD PREFETCHES:          0 PREFETCH ISSUED TO LOWER LEVEL:          0  ACCURACY: -nan
ITLB TIMELY PREFETCHES:          0 LATE PREFETCHES: 0 DROPPED PREFETCHES: 0
ITLB PREFETCHES SAME FILL-ORIGIN LEVEL: 0 DIFFERENT FILL-ORIGIN LEVEL: 0
ITLB AVERAGE MISS LATENCY: 125.5 cycles
ITLB RQ	ACCESS:   39295907	FORWARD:          0	MERGED:    8122558	TO_CACHE:   31173349

DTLB TOTAL     ACCESS:   33665271  HIT:   32833042  MISS:     832229  HIT %:    97.5279  MISS %:    2.47207   MPKI: 4.16114
DTLB LOAD TRANSLATION ACCESS:   33665271  HIT:   32833042  MISS:     832229  HIT %:    97.5279  MISS %:    2.47207   MPKI: 4.16114
DTLB PREFETCH  REQUESTED:          0  ISSUED:          0  USEFUL:          0  USELESS:          0
DTLB USEFUL LOAD PREFETCHES:          0 PREFETCH ISSUED TO LOWER LEVEL:          0  ACCURACY: -nan
DTLB TIMELY PREFETCHES:          0 LATE PREFETCHES: 0 DROPPED PREFETCHES: 0
DTLB PREFETCHES SAME FILL-ORIGIN LEVEL: 0 DIFFERENT FILL-ORIGIN LEVEL: 0
DTLB AVERAGE MISS LATENCY: 11.0931 cycles
DTLB RQ	ACCESS:   42606031	FORWARD:          0	MERGED:    8939158	TO_CACHE:   33666873

STLB TOTAL     ACCESS:    2701302  HIT:    2699208  MISS:       2094  HIT %:    99.9225  MISS %:  0.0775182   MPKI: 0.01047
STLB LOAD TRANSLATION ACCESS:     832231  HIT:     830137  MISS:       2094  HIT %:    99.7484  MISS %:   0.251613   MPKI: 0.01047
STLB TRANSLATION FROM L1D PREFETCHER ACCESS:    1869071  HIT:    1869071  MISS:          0  HIT %:        100  MISS %:          0   MPKI: 0
STLB PREFETCH  REQUESTED:          0  ISSUED:          0  USEFUL:          0  USELESS:          0
STLB USEFUL LOAD PREFETCHES:          0 PREFETCH ISSUED TO LOWER LEVEL:          0  ACCURACY: -nan
STLB TIMELY PREFETCHES:          0 LATE PREFETCHES: 32 DROPPED PREFETCHES: 122947
STLB PREFETCHES SAME FILL-ORIGIN LEVEL: 0 DIFFERENT FILL-ORIGIN LEVEL: 0
STLB AVERAGE MISS LATENCY: 434.114 cycles
STLB RQ	ACCESS:    6775958	FORWARD:          0	MERGED:    3951404	TO_CACHE:    2824554

STLB Hit, L1D data hit: 0
STLB Hit, L2C data hit: 0
STLB Hit, LLC data hit: 0
STLB Hit, LLC data miss: 0
STLB STLB hints to L2: 0
L1D TOTAL     ACCESS:   47851343  HIT:   47495181  MISS:     356162  HIT %:    99.2557  MISS %:   0.744309   MPKI: 1.78081
L1D LOAD      ACCESS:   28798390  HIT:   28704266  MISS:      94124  HIT %:    99.6732  MISS %:   0.326838   MPKI: 0.47062
L1D RFO       ACCESS:   13740311  HIT:   13686808  MISS:      53503  HIT %:    99.6106  MISS %:   0.389387   MPKI: 0.267515
L1D PREFETCH  ACCESS:    5312642  HIT:    5104107  MISS:     208535  HIT %:    96.0747  MISS %:    3.92526   MPKI: 1.04267
L1D PREFETCH  REQUESTED:   17814355  ISSUED:   12146712  USEFUL:     195234  USELESS:      13297
L1D USEFUL LOAD PREFETCHES:     195234 PREFETCH ISSUED TO LOWER LEVEL:     661266  ACCURACY: 29.5243
L1D TIMELY PREFETCHES:     195234 LATE PREFETCHES: 311 DROPPED PREFETCHES: 152962
L1D PREFETCHES SAME FILL-ORIGIN LEVEL: 208846 DIFFERENT FILL-ORIGIN LEVEL: 452420
L1D AVERAGE MISS LATENCY: 70.0684 cycles
L1D RQ	ACCESS:   43166391	FORWARD:          0	MERGED:   14165558	TO_CACHE:   28803330
L1D WQ	ACCESS:   14215278	FORWARD:     197503	MERGED:     412577	TO_CACHE:   13802701
L1D PQ	ACCESS:    6202985	FORWARD:          0	MERGED:     259258	TO_CACHE:    5943727

L1D UNIQUE REGIONS ACCESSED: 0
L1D REGIONS CONFLICTS: 0
L1D Cross Page Prefetch Requests: 1231974
L1D Same Page Prefetch Requests: 4986103
L1D ROI Sum of L1D PQ occupancy: 123507077
L1D PREFETCHES PUSHED FROM L2C: 0
L1I TOTAL     ACCESS:   39295868  HIT:   39295794  MISS:         74  HIT %:    99.9998  MISS %: 0.000188315   MPKI: 0.00037
L1I LOAD      ACCESS:   39295868  HIT:   39295794  MISS:         74  HIT %:    99.9998  MISS %: 0.000188315   MPKI: 0.00037
L1I PREFETCH  REQUESTED:          0  ISSUED:          0  USEFUL:          0  USELESS:          0
L1I USEFUL LOAD PREFETCHES:          0 PREFETCH ISSUED TO LOWER LEVEL:          0  ACCURACY: -nan
L1I TIMELY PREFETCHES:          0 LATE PREFETCHES: 0 DROPPED PREFETCHES: 0
L1I PREFETCHES SAME FILL-ORIGIN LEVEL: 0 DIFFERENT FILL-ORIGIN LEVEL: 0
L1I AVERAGE MISS LATENCY: 193.203 cycles
L1I RQ	ACCESS:   56192248	FORWARD:          0	MERGED:   16896341	TO_CACHE:   39295907

BTB TOTAL     ACCESS:   25367500  HIT:   24938588  MISS:     428912  HIT %:    98.3092  MISS %:    1.69079   MPKI: 2.14456
BTB BRANCH_DIRECT_JUMP	ACCESS:    2709971  HIT:    2709934  MISS:         37
BTB BRANCH_INDIRECT	ACCESS:     415743  HIT:     415740  MISS:          3
BTB BRANCH_CONDITIONAL	ACCESS:   20405809  HIT:   20405669  MISS:        140
BTB BRANCH_DIRECT_CALL	ACCESS:     917988  HIT:     917931  MISS:         57
BTB BRANCH_INDIRECT_CALL	ACCESS:          0  HIT:          0  MISS:          0
BTB BRANCH_RETURN	ACCESS:     917989  HIT:     489314  MISS:     428675
BTB BRANCH_OTHER ACCESS:          0  HIT:          0  MISS:          0

L2C TOTAL     ACCESS:    1119672  HIT:     887396  MISS:     232276  HIT %:     79.255  MISS %:     20.745   MPKI: 1.16138
L2C LOAD      ACCESS:      93881  HIT:      20939  MISS:      72942  HIT %:    22.3038  MISS %:    77.6962   MPKI: 0.36471
L2C DATA LOAD MPKI: 0.36434
L2C INSTRUCTION LOAD MPKI: 0.00037
L2C RFO       ACCESS:      53497  HIT:       5865  MISS:      47632  HIT %:    10.9632  MISS %:    89.0368   MPKI: 0.23816
L2C PREFETCH  ACCESS:     639025  HIT:     534065  MISS:     104960  HIT %:     83.575  MISS %:     16.425   MPKI: 0.5248
L2C DATA PREFETCH MPKI: 0.5248
L2C INSTRUCTION PREFETCH MPKI: 0
L2C WRITEBACK ACCESS:      83845  HIT:      79292  MISS:       4553  HIT %:    94.5697  MISS %:    5.43026   MPKI: 0.022765
L2C LOAD TRANSLATION ACCESS:       3502  HIT:       1502  MISS:       2000  HIT %:    42.8898  MISS %:    57.1102   MPKI: 0.01
L2C TRANSLATION FROM L1D PREFETCHER ACCESS:     245922  HIT:     245733  MISS:        189  HIT %:    99.9231  MISS %:  0.0768536   MPKI: 0.000945
L2C PREFETCH  REQUESTED:          0  ISSUED:          0  USEFUL:      10205  USELESS:      91083
L2C USEFUL LOAD PREFETCHES:      10205 PREFETCH ISSUED TO LOWER LEVEL:     105052  ACCURACY: 9.71424
L2C TIMELY PREFETCHES:      10205 LATE PREFETCHES: 92 DROPPED PREFETCHES: 0
L2C PREFETCHES SAME FILL-ORIGIN LEVEL: 51240 DIFFERENT FILL-ORIGIN LEVEL: 0
L2C AVERAGE MISS LATENCY: 109.095 cycles
L2C RQ	ACCESS:     396814	FORWARD:          0	MERGED:          0	TO_CACHE:     396802
L2C WQ	ACCESS:      83845	FORWARD:         15	MERGED:          0	TO_CACHE:      83845
L2C PQ	ACCESS:     661266	FORWARD:          0	MERGED:          0	TO_CACHE:     661263

L2C Instructions Evicting Data 43
L2C Translations Evicting Data 2134
L2C Data Evicting Data 217377
L2C Instructions Evicting Instructions 0
L2C Translations Evicting Instructions 1
L2C Data Evicting Instructions 292
L2C Instructions Evicting Translations 1
L2C Translations Evicting Translations 19
L2C Data Evicting Translations 2248
L2C Dense regions hint from L2: 0
PSCL5 TOTAL     ACCESS:     125073  HIT:     125073  MISS:          0  HIT %:        100  MISS %:          0   MPKI: 0
PSCL5 LOAD TRANSLATION ACCESS:       2094  HIT:       2094  MISS:          0  HIT %:        100  MISS %:          0   MPKI: 0
PSCL5 TRANSLATION FROM L1D PREFETCHER ACCESS:     122979  HIT:     122979  MISS:          0  HIT %:        100  MISS %:          0   MPKI: 0
PSCL5 PREFETCH  REQUESTED:          0  ISSUED:          0  USEFUL:          0  USELESS:          0
PSCL5 USEFUL LOAD PREFETCHES:          0 PREFETCH ISSUED TO LOWER LEVEL:          0  ACCURACY: -nan
PSCL5 TIMELY PREFETCHES:          0 LATE PREFETCHES: 0 DROPPED PREFETCHES: 0
PSCL5 PREFETCHES SAME FILL-ORIGIN LEVEL: 0 DIFFERENT FILL-ORIGIN LEVEL: 0

PSCL4 TOTAL     ACCESS:     125073  HIT:     125073  MISS:          0  HIT %:        100  MISS %:          0   MPKI: 0
PSCL4 LOAD TRANSLATION ACCESS:       2094  HIT:       2094  MISS:          0  HIT %:        100  MISS %:          0   MPKI: 0
PSCL4 TRANSLATION FROM L1D PREFETCHER ACCESS:     122979  HIT:     122979  MISS:          0  HIT %:        100  MISS %:          0   MPKI: 0
PSCL4 PREFETCH  REQUESTED:          0  ISSUED:          0  USEFUL:          0  USELESS:          0
PSCL4 USEFUL LOAD PREFETCHES:          0 PREFETCH ISSUED TO LOWER LEVEL:          0  ACCURACY: -nan
PSCL4 TIMELY PREFETCHES:          0 LATE PREFETCHES: 0 DROPPED PREFETCHES: 0
PSCL4 PREFETCHES SAME FILL-ORIGIN LEVEL: 0 DIFFERENT FILL-ORIGIN LEVEL: 0

PSCL3 TOTAL     ACCESS:     109619  HIT:     109594  MISS:         25  HIT %:    99.9772  MISS %:  0.0228063   MPKI: 0.000125
PSCL3 LOAD TRANSLATION ACCESS:       2094  HIT:       2069  MISS:         25  HIT %:    98.8061  MISS %:    1.19389   MPKI: 0.000125
PSCL3 TRANSLATION FROM L1D PREFETCHER ACCESS:     107525  HIT:     107525  MISS:          0  HIT %:        100  MISS %:          0   MPKI: 0
PSCL3 PREFETCH  REQUESTED:          0  ISSUED:          0  USEFUL:          0  USELESS:          0
PSCL3 USEFUL LOAD PREFETCHES:          0 PREFETCH ISSUED TO LOWER LEVEL:          0  ACCURACY: -nan
PSCL3 TIMELY PREFETCHES:          0 LATE PREFETCHES: 0 DROPPED PREFETCHES: 0
PSCL3 PREFETCHES SAME FILL-ORIGIN LEVEL: 0 DIFFERENT FILL-ORIGIN LEVEL: 0

PSCL2 TOTAL     ACCESS:      17546  HIT:      16153  MISS:       1393  HIT %:    92.0609  MISS %:    7.93913   MPKI: 0.006965
PSCL2 LOAD TRANSLATION ACCESS:       2094  HIT:        701  MISS:       1393  HIT %:    33.4766  MISS %:    66.5234   MPKI: 0.006965
PSCL2 TRANSLATION FROM L1D PREFETCHER ACCESS:      15452  HIT:      15452  MISS:          0  HIT %:        100  MISS %:          0   MPKI: 0
PSCL2 PREFETCH  REQUESTED:          0  ISSUED:          0  USEFUL:          0  USELESS:          0
PSCL2 USEFUL LOAD PREFETCHES:          0 PREFETCH ISSUED TO LOWER LEVEL:          0  ACCURACY: -nan
PSCL2 TIMELY PREFETCHES:          0 LATE PREFETCHES: 0 DROPPED PREFETCHES: 0
PSCL2 PREFETCHES SAME FILL-ORIGIN LEVEL: 0 DIFFERENT FILL-ORIGIN LEVEL: 0

LLC TOTAL     ACCESS:     294258  HIT:     177365  MISS:     116893  HIT %:    60.2753  MISS %:    39.7247   MPKI: 0.584465
LLC LOAD      ACCESS:      72851  HIT:      30477  MISS:      42374  HIT %:    41.8347  MISS %:    58.1653   MPKI: 0.21187
LLC RFO       ACCESS:      47631  HIT:      31355  MISS:      16276  HIT %:     65.829  MISS %:     34.171   MPKI: 0.08138
LLC PREFETCH  ACCESS:     105052  HIT:      48685  MISS:      56367  HIT %:    46.3437  MISS %:    53.6563   MPKI: 0.281835
LLC WRITEBACK ACCESS:      66535  HIT:      66122  MISS:        413  HIT %:    99.3793  MISS %:   0.620726   MPKI: 0.002065
LLC LOAD TRANSLATION ACCESS:       2000  HIT:        686  MISS:       1314  HIT %:       34.3  MISS %:       65.7   MPKI: 0.00657
LLC TRANSLATION FROM L1D PREFETCHER ACCESS:        189  HIT:         40  MISS:        149  HIT %:     21.164  MISS %:     78.836   MPKI: 0.000745
LLC PREFETCH  REQUESTED:          0  ISSUED:          0  USEFUL:      24335  USELESS:      23281
LLC USEFUL LOAD PREFETCHES:      24335 PREFETCH ISSUED TO LOWER LEVEL:      56367  ACCURACY: 43.1724
LLC TIMELY PREFETCHES:      24335 LATE PREFETCHES: 0 DROPPED PREFETCHES: 0
LLC PREFETCHES SAME FILL-ORIGIN LEVEL: 0 DIFFERENT FILL-ORIGIN LEVEL: 0
LLC AVERAGE MISS LATENCY: 157.511 cycles
LLC RQ	ACCESS:     122671	FORWARD:          0	MERGED:          0	TO_CACHE:     122671
LLC WQ	ACCESS:      66535	FORWARD:          0	MERGED:          0	TO_CACHE:      66535
LLC PQ	ACCESS:     105052	FORWARD:          0	MERGED:          0	TO_CACHE:     105052

LLC Dense regions hint to LLC: 0

RAW hits: 1990814
Loads Generated: 45157206
Loads sent to L1D: 43166391
Stores Generated: 14215272
Stores sent to L1D: 14215278
Major fault: 0 Minor fault: 2932
Allocated PAGES: 2932

DRAM Statistics
 CHANNEL 0
 RQ ROW_BUFFER_HIT:      33424  ROW_BUFFER_MISS:      83035
 DBUS_CONGESTED:        237
 WQ ROW_BUFFER_HIT:       2208  ROW_BUFFER_MISS:       8975  FULL:          0

 AVG_CONGESTED_CYCLE: 4
 All warmup complete: 2
Channel 0 Bank busy for read cycles: 0
Channel 0 Bank busy for write cycles: 0
Channel 0
Rank 0
0banks busy for read cycles: 256668564
0banks busy for write cycles: 6317
1banks busy for read cycles: 5410685
1banks busy for write cycles: 973099
2banks busy for read cycles: 1974572
2banks busy for write cycles: 175072
3banks busy for read cycles: 730701
3banks busy for write cycles: 82164
4banks busy for read cycles: 316547
4banks busy for write cycles: 58624
5banks busy for read cycles: 126382
5banks busy for write cycles: 41539
6banks busy for read cycles: 45874
6banks busy for write cycles: 34666
7banks busy for read cycles: 20907
7banks busy for write cycles: 27731
8banks busy for read cycles: 32023
8banks busy for write cycles: 27198

CPU 0 Branch Prediction Accuracy: 99.983% MPKI: 0.02124 Average ROB Occupancy at Mispredict: 151.293
Branch types
NOT_BRANCH: 169977885 84.9889%
BRANCH_DIRECT_JUMP: 2709971 1.35499%
BRANCH_INDIRECT: 415743 0.207871%
BRANCH_CONDITIONAL: 25060389 12.5302%
BRANCH_DIRECT_CALL: 917988 0.458994%
BRANCH_INDIRECT_CALL: 0 0%
BRANCH_RETURN: 917989 0.458994%
BRANCH_OTHER: 0 0%

DRAM PAGES: 1048576
Allocated PAGES: 2932
