526208 bits of metadata so far, 405638 left out of 526336 total budget
table size is 13521 bits, 2253 entries for 5 bit, 1931 entries for 6 bit
526208 total bits (64.23KB)

*** ChampSim Multicore Out-of-Order Simulator ***

Warmup Instructions: 50000000
Simulation Instructions: 200000000
Number of CPUs: 1
LLC sets: 2048
LLC ways: 16
Off-chip DRAM Size: 4096 MB Channels: 1 Width: 64-bit Data Rate: 6400 MT/s
argv[0]: ./ChampSim/Berti/bin/multiperspective_perceptron-no-vberti-no-no-no-no-no-lru-lru-lru-srrip-drrip-lru-lru-lru-1core-no
argv[1]: -warmup_instructions
argv[2]: 50000000
argv[3]: -simulation_instructions
argv[4]: 200000000
argv[5]: -traces
argv[6]: traces/spec2k17_ten/654.roms_s-1070B.champsimtrace.xz
CPU 0 runs traces/spec2k17_ten/654.roms_s-1070B.champsimtrace.xz
.xz
CPU 0 Multiperspective perceptron branch predictor
BTB has LRU replacement policy
ITLB has LRU replacement policy
DTLB has LRU replacement policy
STLB has LRU replacement policy
L1I has LRU replacement policy
History Sets: 8
History Ways: 16
BERTI Size: 16
BERTI Stride Size: 16
L1D has LRU replacement policy
Initialize SRRIP state for L2C
Initialize DRRIP state for LLC
Heartbeat CPU 0 instructions: 10000002 cycles: 3109982 heartbeat IPC: 3.21545 cumulative IPC: 3.21545 (Simulation time: 0 hr 1 min 58 sec) 
Heartbeat CPU 0 instructions: 20000002 cycles: 6328637 heartbeat IPC: 3.10689 cumulative IPC: 3.16024 (Simulation time: 0 hr 6 min 4 sec) 
Heartbeat CPU 0 instructions: 30000003 cycles: 9357571 heartbeat IPC: 3.30149 cumulative IPC: 3.20596 (Simulation time: 0 hr 8 min 45 sec) 
Heartbeat CPU 0 instructions: 40000001 cycles: 12660287 heartbeat IPC: 3.02781 cumulative IPC: 3.15949 (Simulation time: 0 hr 13 min 12 sec) 
Heartbeat CPU 0 instructions: 50000001 cycles: 15846965 heartbeat IPC: 3.13806 cumulative IPC: 3.15518 (Simulation time: 0 hr 20 min 9 sec) 

Warmup complete CPU 0 instructions: 50000001 cycles: 15846965 (Simulation time: 0 hr 20 min 9 sec) 

Heartbeat CPU 0 instructions: 60000000 cycles: 30878252 heartbeat IPC: 0.665279 cumulative IPC: 0.665279 (Simulation time: 0 hr 27 min 44 sec) 
Heartbeat CPU 0 instructions: 70000002 cycles: 39849477 heartbeat IPC: 1.11468 cumulative IPC: 0.833246 (Simulation time: 0 hr 33 min 27 sec) 
Heartbeat CPU 0 instructions: 80000003 cycles: 50862013 heartbeat IPC: 0.908056 cumulative IPC: 0.856775 (Simulation time: 0 hr 39 min 44 sec) 
Heartbeat CPU 0 instructions: 90000000 cycles: 63882636 heartbeat IPC: 0.768012 cumulative IPC: 0.832714 (Simulation time: 0 hr 47 min 2 sec) 
Heartbeat CPU 0 instructions: 100000003 cycles: 72266298 heartbeat IPC: 1.1928 cumulative IPC: 0.886221 (Simulation time: 0 hr 52 min 1 sec) 
Heartbeat CPU 0 instructions: 110000000 cycles: 87864106 heartbeat IPC: 0.641116 cumulative IPC: 0.833135 (Simulation time: 0 hr 59 min 58 sec) 
Heartbeat CPU 0 instructions: 120000002 cycles: 96245986 heartbeat IPC: 1.19305 cumulative IPC: 0.870657 (Simulation time: 1 hr 5 min 1 sec) 
Heartbeat CPU 0 instructions: 130000002 cycles: 108167165 heartbeat IPC: 0.838843 cumulative IPC: 0.866549 (Simulation time: 1 hr 11 min 38 sec) 
Heartbeat CPU 0 instructions: 140000001 cycles: 120226729 heartbeat IPC: 0.829217 cumulative IPC: 0.862236 (Simulation time: 1 hr 18 min 26 sec) 
Heartbeat CPU 0 instructions: 150000003 cycles: 128923486 heartbeat IPC: 1.14985 cumulative IPC: 0.884357 (Simulation time: 1 hr 23 min 8 sec) 
Heartbeat CPU 0 instructions: 160000000 cycles: 144338202 heartbeat IPC: 0.648731 cumulative IPC: 0.856089 (Simulation time: 1 hr 30 min 7 sec) 
Heartbeat CPU 0 instructions: 170000000 cycles: 152739447 heartbeat IPC: 1.1903 cumulative IPC: 0.8766 (Simulation time: 1 hr 33 min 47 sec) 
Heartbeat CPU 0 instructions: 180000002 cycles: 165788378 heartbeat IPC: 0.766346 cumulative IPC: 0.867005 (Simulation time: 1 hr 37 min 47 sec) 
Heartbeat CPU 0 instructions: 190000000 cycles: 176807914 heartbeat IPC: 0.907479 cumulative IPC: 0.869776 (Simulation time: 1 hr 41 min 47 sec) 
Heartbeat CPU 0 instructions: 200000000 cycles: 186635885 heartbeat IPC: 1.0175 cumulative IPC: 0.878277 (Simulation time: 1 hr 44 min 35 sec) 
Heartbeat CPU 0 instructions: 210000001 cycles: 201967711 heartbeat IPC: 0.652238 cumulative IPC: 0.859657 (Simulation time: 1 hr 47 min 35 sec) 
Heartbeat CPU 0 instructions: 220000000 cycles: 214072429 heartbeat IPC: 0.826124 cumulative IPC: 0.857609 (Simulation time: 1 hr 49 min 9 sec) 
Heartbeat CPU 0 instructions: 230000002 cycles: 228805510 heartbeat IPC: 0.678745 cumulative IPC: 0.845235 (Simulation time: 1 hr 51 min 22 sec) 
Heartbeat CPU 0 instructions: 240000000 cycles: 242196961 heartbeat IPC: 0.746745 cumulative IPC: 0.839408 (Simulation time: 1 hr 53 min 5 sec) 
Heartbeat CPU 0 instructions: 250000001 cycles: 254564063 heartbeat IPC: 0.808597 cumulative IPC: 0.837812 (Simulation time: 1 hr 54 min 20 sec) 
Finished CPU 0 instructions: 200000000 cycles: 238717098 cumulative IPC: 0.837812 (Simulation time: 1 hr 54 min 20 sec) 

ChampSim completed all CPUs

Region of Interest Statistics

CPU 0 cumulative IPC: 0.837812 instructions: 200000000 cycles: 238717098
ITLB TOTAL     ACCESS:   31042873  HIT:   31042872  MISS:          1  HIT %:        100  MISS %: 3.22135e-06   MPKI: 5e-06
ITLB LOAD TRANSLATION ACCESS:   31042873  HIT:   31042872  MISS:          1  HIT %:        100  MISS %: 3.22135e-06   MPKI: 5e-06
ITLB PREFETCH  REQUESTED:          0  ISSUED:          0  USEFUL:          0  USELESS:          0
ITLB USEFUL LOAD PREFETCHES:          0 PREFETCH ISSUED TO LOWER LEVEL:          0  ACCURACY: -nan
ITLB TIMELY PREFETCHES:          0 LATE PREFETCHES: 0 DROPPED PREFETCHES: 0
ITLB PREFETCHES SAME FILL-ORIGIN LEVEL: 0 DIFFERENT FILL-ORIGIN LEVEL: 0
ITLB AVERAGE MISS LATENCY: 320 cycles
ITLB RQ	ACCESS:   35276999	FORWARD:          0	MERGED:    4234127	TO_CACHE:   31042872

DTLB TOTAL     ACCESS:   54636364  HIT:   54529476  MISS:     106888  HIT %:    99.8044  MISS %:   0.195635   MPKI: 0.53444
DTLB LOAD TRANSLATION ACCESS:   54636364  HIT:   54529476  MISS:     106888  HIT %:    99.8044  MISS %:   0.195635   MPKI: 0.53444
DTLB PREFETCH  REQUESTED:          0  ISSUED:          0  USEFUL:          0  USELESS:          0
DTLB USEFUL LOAD PREFETCHES:          0 PREFETCH ISSUED TO LOWER LEVEL:          0  ACCURACY: -nan
DTLB TIMELY PREFETCHES:          0 LATE PREFETCHES: 0 DROPPED PREFETCHES: 0
DTLB PREFETCHES SAME FILL-ORIGIN LEVEL: 0 DIFFERENT FILL-ORIGIN LEVEL: 0
DTLB AVERAGE MISS LATENCY: 129.785 cycles
DTLB RQ	ACCESS:   59000453	FORWARD:          0	MERGED:    4270854	TO_CACHE:   54729599

STLB TOTAL     ACCESS:   27969796  HIT:   27873578  MISS:      96218  HIT %:     99.656  MISS %:   0.344007   MPKI: 0.48109
STLB LOAD TRANSLATION ACCESS:     106889  HIT:      39631  MISS:      67258  HIT %:    37.0768  MISS %:    62.9232   MPKI: 0.33629
STLB TRANSLATION FROM L1D PREFETCHER ACCESS:   27862907  HIT:   27833947  MISS:      28960  HIT %:    99.8961  MISS %:   0.103937   MPKI: 0.1448
STLB PREFETCH  REQUESTED:          0  ISSUED:          0  USEFUL:      28960  USELESS:          0
STLB USEFUL LOAD PREFETCHES:      28960 PREFETCH ISSUED TO LOWER LEVEL:          0  ACCURACY: inf
STLB TIMELY PREFETCHES:      28960 LATE PREFETCHES: 2570 DROPPED PREFETCHES: 914745
STLB PREFETCHES SAME FILL-ORIGIN LEVEL: 0 DIFFERENT FILL-ORIGIN LEVEL: 0
STLB AVERAGE MISS LATENCY: 152.983 cycles
STLB RQ	ACCESS:   85822359	FORWARD:          0	MERGED:   56883643	TO_CACHE:   28938716

STLB Hit, L1D data hit: 0
STLB Hit, L2C data hit: 0
STLB Hit, LLC data hit: 0
STLB Hit, LLC data miss: 0
STLB STLB hints to L2: 0
L1D TOTAL     ACCESS:  114553810  HIT:  109299788  MISS:    5254022  HIT %:    95.4135  MISS %:    4.58651   MPKI: 26.2701
L1D LOAD      ACCESS:   47961146  HIT:   47517343  MISS:     443803  HIT %:    99.0747  MISS %:   0.925339   MPKI: 2.21902
L1D RFO       ACCESS:    3154920  HIT:    1806381  MISS:    1348539  HIT %:     57.256  MISS %:     42.744   MPKI: 6.7427
L1D PREFETCH  ACCESS:   63437744  HIT:   59976064  MISS:    3461680  HIT %:    94.5432  MISS %:    5.45681   MPKI: 17.3084
L1D PREFETCH  REQUESTED:  245347293  ISSUED:  175613429  USEFUL:    2923281  USELESS:     538460
L1D USEFUL LOAD PREFETCHES:    2923281 PREFETCH ISSUED TO LOWER LEVEL:   20584165  ACCURACY: 14.2016
L1D TIMELY PREFETCHES:    2923281 LATE PREFETCHES: 37362 DROPPED PREFETCHES: 1908270
L1D PREFETCHES SAME FILL-ORIGIN LEVEL: 3499384 DIFFERENT FILL-ORIGIN LEVEL: 17084781
L1D AVERAGE MISS LATENCY: 180.289 cycles
L1D RQ	ACCESS:   73913361	FORWARD:          0	MERGED:   25632195	TO_CACHE:   48281166
L1D WQ	ACCESS:   10719287	FORWARD:          0	MERGED:          0	TO_CACHE:   10719287
L1D PQ	ACCESS:   89897959	FORWARD:          0	MERGED:    4182489	TO_CACHE:   85715470

L1D UNIQUE REGIONS ACCESSED: 0
L1D REGIONS CONFLICTS: 0
L1D Cross Page Prefetch Requests: 27412137
L1D Same Page Prefetch Requests: 82322124
L1D ROI Sum of L1D PQ occupancy: 1511291519
L1D PREFETCHES PUSHED FROM L2C: 0
L1I TOTAL     ACCESS:   35276972  HIT:   35276922  MISS:         50  HIT %:    99.9999  MISS %: 0.000141736   MPKI: 0.00025
L1I LOAD      ACCESS:   35276972  HIT:   35276922  MISS:         50  HIT %:    99.9999  MISS %: 0.000141736   MPKI: 0.00025
L1I PREFETCH  REQUESTED:          0  ISSUED:          0  USEFUL:          0  USELESS:          0
L1I USEFUL LOAD PREFETCHES:          0 PREFETCH ISSUED TO LOWER LEVEL:          0  ACCURACY: -nan
L1I TIMELY PREFETCHES:          0 LATE PREFETCHES: 0 DROPPED PREFETCHES: 0
L1I PREFETCHES SAME FILL-ORIGIN LEVEL: 0 DIFFERENT FILL-ORIGIN LEVEL: 0
L1I AVERAGE MISS LATENCY: 242.58 cycles
L1I RQ	ACCESS:   54171447	FORWARD:          0	MERGED:   18894448	TO_CACHE:   35276999

BTB TOTAL     ACCESS:   10637190  HIT:   10637169  MISS:         21  HIT %:    99.9998  MISS %: 0.000197421   MPKI: 0.000105
BTB BRANCH_DIRECT_JUMP	ACCESS:      26624  HIT:      26622  MISS:          2
BTB BRANCH_INDIRECT	ACCESS:          0  HIT:          0  MISS:          0
BTB BRANCH_CONDITIONAL	ACCESS:   10610566  HIT:   10610547  MISS:         19
BTB BRANCH_DIRECT_CALL	ACCESS:          0  HIT:          0  MISS:          0
BTB BRANCH_INDIRECT_CALL	ACCESS:          0  HIT:          0  MISS:          0
BTB BRANCH_RETURN	ACCESS:          0  HIT:          0  MISS:          0
BTB BRANCH_OTHER ACCESS:          0  HIT:          0  MISS:          0

L2C TOTAL     ACCESS:   21741254  HIT:   17159029  MISS:    4582225  HIT %:    78.9238  MISS %:    21.0762   MPKI: 22.9111
L2C LOAD      ACCESS:     406484  HIT:     252417  MISS:     154067  HIT %:    62.0976  MISS %:    37.9024   MPKI: 0.770335
L2C DATA LOAD MPKI: 0.770085
L2C INSTRUCTION LOAD MPKI: 0.00025
L2C RFO       ACCESS:    1348539  HIT:          0  MISS:    1348539  HIT %:          0  MISS %:        100   MPKI: 6.7427
L2C PREFETCH  ACCESS:   17621447  HIT:   14589318  MISS:    3032129  HIT %:     82.793  MISS %:     17.207   MPKI: 15.1606
L2C DATA PREFETCH MPKI: 15.1606
L2C INSTRUCTION PREFETCH MPKI: 0
L2C WRITEBACK ACCESS:    1350675  HIT:    1323218  MISS:      27457  HIT %:    97.9672  MISS %:    2.03284   MPKI: 0.137285
L2C LOAD TRANSLATION ACCESS:      67329  HIT:      55368  MISS:      11961  HIT %:     82.235  MISS %:     17.765   MPKI: 0.059805
L2C TRANSLATION FROM L1D PREFETCHER ACCESS:     946780  HIT:     938708  MISS:       8072  HIT %:    99.1474  MISS %:   0.852574   MPKI: 0.04036
L2C PREFETCH  REQUESTED:          0  ISSUED:          0  USEFUL:     238638  USELESS:    2804878
L2C USEFUL LOAD PREFETCHES:     238638 PREFETCH ISSUED TO LOWER LEVEL:    3103485  ACCURACY: 7.68936
L2C TIMELY PREFETCHES:     238638 LATE PREFETCHES: 71349 DROPPED PREFETCHES: 0
L2C PREFETCHES SAME FILL-ORIGIN LEVEL: 1368845 DIFFERENT FILL-ORIGIN LEVEL: 0
L2C AVERAGE MISS LATENCY: 266.736 cycles
L2C RQ	ACCESS:    2769144	FORWARD:          0	MERGED:          0	TO_CACHE:    2769137
L2C WQ	ACCESS:    1350675	FORWARD:          7	MERGED:          0	TO_CACHE:    1350675
L2C PQ	ACCESS:   20568606	FORWARD:          0	MERGED:       2189	TO_CACHE:   20566417

L2C Instructions Evicting Data 49
L2C Translations Evicting Data 19940
L2C Data Evicting Data 4514792
L2C Instructions Evicting Instructions 0
L2C Translations Evicting Instructions 0
L2C Data Evicting Instructions 50
L2C Instructions Evicting Translations 1
L2C Translations Evicting Translations 93
L2C Data Evicting Translations 19843
L2C Dense regions hint from L2: 0
PSCL5 TOTAL     ACCESS:    1013505  HIT:    1013505  MISS:          0  HIT %:        100  MISS %:          0   MPKI: 0
PSCL5 LOAD TRANSLATION ACCESS:      67230  HIT:      67230  MISS:          0  HIT %:        100  MISS %:          0   MPKI: 0
PSCL5 TRANSLATION FROM L1D PREFETCHER ACCESS:     946275  HIT:     946275  MISS:          0  HIT %:        100  MISS %:          0   MPKI: 0
PSCL5 PREFETCH  REQUESTED:          0  ISSUED:          0  USEFUL:          0  USELESS:          0
PSCL5 USEFUL LOAD PREFETCHES:          0 PREFETCH ISSUED TO LOWER LEVEL:          0  ACCURACY: -nan
PSCL5 TIMELY PREFETCHES:          0 LATE PREFETCHES: 0 DROPPED PREFETCHES: 0
PSCL5 PREFETCHES SAME FILL-ORIGIN LEVEL: 0 DIFFERENT FILL-ORIGIN LEVEL: 0

PSCL4 TOTAL     ACCESS:    1013505  HIT:    1013505  MISS:          0  HIT %:        100  MISS %:          0   MPKI: 0
PSCL4 LOAD TRANSLATION ACCESS:      67230  HIT:      67230  MISS:          0  HIT %:        100  MISS %:          0   MPKI: 0
PSCL4 TRANSLATION FROM L1D PREFETCHER ACCESS:     946275  HIT:     946275  MISS:          0  HIT %:        100  MISS %:          0   MPKI: 0
PSCL4 PREFETCH  REQUESTED:          0  ISSUED:          0  USEFUL:          0  USELESS:          0
PSCL4 USEFUL LOAD PREFETCHES:          0 PREFETCH ISSUED TO LOWER LEVEL:          0  ACCURACY: -nan
PSCL4 TIMELY PREFETCHES:          0 LATE PREFETCHES: 0 DROPPED PREFETCHES: 0
PSCL4 PREFETCHES SAME FILL-ORIGIN LEVEL: 0 DIFFERENT FILL-ORIGIN LEVEL: 0

PSCL3 TOTAL     ACCESS:    1007668  HIT:    1007661  MISS:          7  HIT %:    99.9993  MISS %: 0.000694673   MPKI: 3.5e-05
PSCL3 LOAD TRANSLATION ACCESS:      66806  HIT:      66799  MISS:          7  HIT %:    99.9895  MISS %:  0.0104781   MPKI: 3.5e-05
PSCL3 TRANSLATION FROM L1D PREFETCHER ACCESS:     940862  HIT:     940862  MISS:          0  HIT %:        100  MISS %:          0   MPKI: 0
PSCL3 PREFETCH  REQUESTED:          0  ISSUED:          0  USEFUL:          0  USELESS:          0
PSCL3 USEFUL LOAD PREFETCHES:          0 PREFETCH ISSUED TO LOWER LEVEL:          0  ACCURACY: -nan
PSCL3 TIMELY PREFETCHES:          0 LATE PREFETCHES: 0 DROPPED PREFETCHES: 0
PSCL3 PREFETCHES SAME FILL-ORIGIN LEVEL: 0 DIFFERENT FILL-ORIGIN LEVEL: 0

PSCL2 TOTAL     ACCESS:    1011923  HIT:    1011650  MISS:        273  HIT %:     99.973  MISS %:  0.0269783   MPKI: 0.001365
PSCL2 LOAD TRANSLATION ACCESS:      67259  HIT:      66986  MISS:        273  HIT %:    99.5941  MISS %:   0.405894   MPKI: 0.001365
PSCL2 TRANSLATION FROM L1D PREFETCHER ACCESS:     944664  HIT:     944664  MISS:          0  HIT %:        100  MISS %:          0   MPKI: 0
PSCL2 PREFETCH  REQUESTED:          0  ISSUED:          0  USEFUL:          0  USELESS:          0
PSCL2 USEFUL LOAD PREFETCHES:          0 PREFETCH ISSUED TO LOWER LEVEL:          0  ACCURACY: -nan
PSCL2 TIMELY PREFETCHES:          0 LATE PREFETCHES: 0 DROPPED PREFETCHES: 0
PSCL2 PREFETCHES SAME FILL-ORIGIN LEVEL: 0 DIFFERENT FILL-ORIGIN LEVEL: 0

LLC TOTAL     ACCESS:    5900168  HIT:    1365227  MISS:    4534941  HIT %:    23.1388  MISS %:    76.8612   MPKI: 22.6747
LLC LOAD      ACCESS:      82718  HIT:       1873  MISS:      80845  HIT %:    2.26432  MISS %:    97.7357   MPKI: 0.404225
LLC RFO       ACCESS:    1348540  HIT:          2  MISS:    1348538  HIT %: 0.000148309  MISS %:    99.9999   MPKI: 6.74269
LLC PREFETCH  ACCESS:    3103478  HIT:      38034  MISS:    3065444  HIT %:    1.22553  MISS %:    98.7745   MPKI: 15.3272
LLC WRITEBACK ACCESS:    1345399  HIT:    1325016  MISS:      20383  HIT %:     98.485  MISS %:    1.51502   MPKI: 0.101915
LLC LOAD TRANSLATION ACCESS:      11961  HIT:        152  MISS:      11809  HIT %:     1.2708  MISS %:    98.7292   MPKI: 0.059045
LLC TRANSLATION FROM L1D PREFETCHER ACCESS:       8072  HIT:        150  MISS:       7922  HIT %:    1.85828  MISS %:    98.1417   MPKI: 0.03961
LLC PREFETCH  REQUESTED:          0  ISSUED:          0  USEFUL:       1566  USELESS:    3082668
LLC USEFUL LOAD PREFETCHES:       1566 PREFETCH ISSUED TO LOWER LEVEL:    3065450  ACCURACY: 0.0510855
LLC TIMELY PREFETCHES:       1566 LATE PREFETCHES: 0 DROPPED PREFETCHES: 0
LLC PREFETCHES SAME FILL-ORIGIN LEVEL: 0 DIFFERENT FILL-ORIGIN LEVEL: 0
LLC AVERAGE MISS LATENCY: 241.15 cycles
LLC RQ	ACCESS:    1451295	FORWARD:          0	MERGED:          0	TO_CACHE:    1451295
LLC WQ	ACCESS:    1345399	FORWARD:          0	MERGED:          0	TO_CACHE:    1345399
LLC PQ	ACCESS:    3103485	FORWARD:          0	MERGED:          0	TO_CACHE:    3103485

LLC Dense regions hint to LLC: 0

RAW hits: 17
Loads Generated: 73913377
Loads sent to L1D: 73913361
Stores Generated: 10719286
Stores sent to L1D: 10719287
Major fault: 0 Minor fault: 51871
Allocated PAGES: 51871

DRAM Statistics
 CHANNEL 0
 RQ ROW_BUFFER_HIT:     701506  ROW_BUFFER_MISS:    3813053
 DBUS_CONGESTED:       1439
 WQ ROW_BUFFER_HIT:     319398  ROW_BUFFER_MISS:    1018674  FULL:          0

 AVG_CONGESTED_CYCLE: 3
 All warmup complete: 2
Channel 0 Bank busy for read cycles: 0
Channel 0 Bank busy for write cycles: 0
Channel 0
Rank 0
0banks busy for read cycles: 735056
0banks busy for write cycles: 2848
1banks busy for read cycles: 38040757
1banks busy for write cycles: 840574
2banks busy for read cycles: 48546434
2banks busy for write cycles: 878935
3banks busy for read cycles: 36804449
3banks busy for write cycles: 894885
4banks busy for read cycles: 26503187
4banks busy for write cycles: 887484
5banks busy for read cycles: 14788001
5banks busy for write cycles: 928092
6banks busy for read cycles: 10817759
6banks busy for write cycles: 1002801
7banks busy for read cycles: 7652021
7banks busy for write cycles: 2830744
8banks busy for read cycles: 9657488
8banks busy for write cycles: 36905584

CPU 0 Branch Prediction Accuracy: 99.9985% MPKI: 0.00081 Average ROB Occupancy at Mispredict: 180.617
Branch types
NOT_BRANCH: 189359360 94.6797%
BRANCH_DIRECT_JUMP: 26624 0.013312%
BRANCH_INDIRECT: 0 0%
BRANCH_CONDITIONAL: 10613669 5.30683%
BRANCH_DIRECT_CALL: 0 0%
BRANCH_INDIRECT_CALL: 0 0%
BRANCH_RETURN: 0 0%
BRANCH_OTHER: 0 0%

DRAM PAGES: 1048576
Allocated PAGES: 51871
