526208 bits of metadata so far, 405638 left out of 526336 total budget
table size is 13521 bits, 2253 entries for 5 bit, 1931 entries for 6 bit
526208 total bits (64.23KB)

*** ChampSim Multicore Out-of-Order Simulator ***

Warmup Instructions: 50000000
Simulation Instructions: 200000000
Number of CPUs: 1
LLC sets: 2048
LLC ways: 16
Off-chip DRAM Size: 4096 MB Channels: 1 Width: 64-bit Data Rate: 6400 MT/s
argv[0]: ./ChampSim/Berti/bin/multiperspective_perceptron-no-vberti-no-no-no-no-no-lru-lru-lru-srrip-drrip-lru-lru-lru-1core-no
argv[1]: -warmup_instructions
argv[2]: 50000000
argv[3]: -simulation_instructions
argv[4]: 200000000
argv[5]: -traces
argv[6]: traces/spec2k17_ten/654.roms_s-294B.champsimtrace.xz
CPU 0 runs traces/spec2k17_ten/654.roms_s-294B.champsimtrace.xz
.xz
CPU 0 Multiperspective perceptron branch predictor
BTB has LRU replacement policy
ITLB has LRU replacement policy
DTLB has LRU replacement policy
STLB has LRU replacement policy
L1I has LRU replacement policy
History Sets: 8
History Ways: 16
BERTI Size: 16
BERTI Stride Size: 16
L1D has LRU replacement policy
Initialize SRRIP state for L2C
Initialize DRRIP state for LLC
Heartbeat CPU 0 instructions: 10000001 cycles: 3208520 heartbeat IPC: 3.1167 cumulative IPC: 3.1167 (Simulation time: 0 hr 4 min 19 sec) 
Heartbeat CPU 0 instructions: 20000000 cycles: 6417079 heartbeat IPC: 3.11666 cumulative IPC: 3.11668 (Simulation time: 0 hr 5 min 52 sec) 
Heartbeat CPU 0 instructions: 30000003 cycles: 9625522 heartbeat IPC: 3.11678 cumulative IPC: 3.11671 (Simulation time: 0 hr 7 min 27 sec) 
Heartbeat CPU 0 instructions: 40000001 cycles: 12833809 heartbeat IPC: 3.11693 cumulative IPC: 3.11677 (Simulation time: 0 hr 11 min 2 sec) 
Heartbeat CPU 0 instructions: 50000001 cycles: 16041980 heartbeat IPC: 3.11704 cumulative IPC: 3.11682 (Simulation time: 0 hr 17 min 40 sec) 

Warmup complete CPU 0 instructions: 50000001 cycles: 16041980 (Simulation time: 0 hr 17 min 40 sec) 

Heartbeat CPU 0 instructions: 60000002 cycles: 25618107 heartbeat IPC: 1.04426 cumulative IPC: 1.04426 (Simulation time: 0 hr 24 min 25 sec) 
Heartbeat CPU 0 instructions: 70000000 cycles: 35195633 heartbeat IPC: 1.04411 cumulative IPC: 1.04419 (Simulation time: 0 hr 31 min 4 sec) 
Heartbeat CPU 0 instructions: 80000001 cycles: 44758533 heartbeat IPC: 1.04571 cumulative IPC: 1.04469 (Simulation time: 0 hr 37 min 18 sec) 
Heartbeat CPU 0 instructions: 90000001 cycles: 54331436 heartbeat IPC: 1.04462 cumulative IPC: 1.04467 (Simulation time: 0 hr 42 min 48 sec) 
Heartbeat CPU 0 instructions: 100000002 cycles: 63905534 heartbeat IPC: 1.04448 cumulative IPC: 1.04464 (Simulation time: 0 hr 47 min 59 sec) 
Heartbeat CPU 0 instructions: 110000000 cycles: 73476688 heartbeat IPC: 1.04481 cumulative IPC: 1.04466 (Simulation time: 0 hr 53 min 42 sec) 
Heartbeat CPU 0 instructions: 120000002 cycles: 83047907 heartbeat IPC: 1.0448 cumulative IPC: 1.04468 (Simulation time: 0 hr 59 min 59 sec) 
Heartbeat CPU 0 instructions: 130000001 cycles: 92615510 heartbeat IPC: 1.04519 cumulative IPC: 1.04475 (Simulation time: 1 hr 5 min 50 sec) 
Heartbeat CPU 0 instructions: 140000000 cycles: 102184310 heartbeat IPC: 1.04506 cumulative IPC: 1.04478 (Simulation time: 1 hr 11 min 44 sec) 
Heartbeat CPU 0 instructions: 150000000 cycles: 111753478 heartbeat IPC: 1.04502 cumulative IPC: 1.04481 (Simulation time: 1 hr 17 min 43 sec) 
Heartbeat CPU 0 instructions: 160000003 cycles: 121316213 heartbeat IPC: 1.04573 cumulative IPC: 1.04489 (Simulation time: 1 hr 22 min 29 sec) 
Heartbeat CPU 0 instructions: 170000003 cycles: 130881791 heartbeat IPC: 1.04542 cumulative IPC: 1.04493 (Simulation time: 1 hr 26 min 39 sec) 
Heartbeat CPU 0 instructions: 180000003 cycles: 140452152 heartbeat IPC: 1.04489 cumulative IPC: 1.04493 (Simulation time: 1 hr 30 min 41 sec) 
Heartbeat CPU 0 instructions: 190000002 cycles: 150022517 heartbeat IPC: 1.04489 cumulative IPC: 1.04493 (Simulation time: 1 hr 34 min 55 sec) 
Heartbeat CPU 0 instructions: 200000002 cycles: 159585354 heartbeat IPC: 1.04571 cumulative IPC: 1.04498 (Simulation time: 1 hr 38 min 31 sec) 
Heartbeat CPU 0 instructions: 210000001 cycles: 169157273 heartbeat IPC: 1.04472 cumulative IPC: 1.04496 (Simulation time: 1 hr 41 min 57 sec) 
Heartbeat CPU 0 instructions: 220000000 cycles: 178725245 heartbeat IPC: 1.04515 cumulative IPC: 1.04498 (Simulation time: 1 hr 43 min 48 sec) 
Heartbeat CPU 0 instructions: 230000002 cycles: 188296590 heartbeat IPC: 1.04479 cumulative IPC: 1.04496 (Simulation time: 1 hr 45 min 35 sec) 
Heartbeat CPU 0 instructions: 240000001 cycles: 197861253 heartbeat IPC: 1.04552 cumulative IPC: 1.04499 (Simulation time: 1 hr 47 min 17 sec) 
Heartbeat CPU 0 instructions: 250000000 cycles: 207434941 heartbeat IPC: 1.04453 cumulative IPC: 1.04497 (Simulation time: 1 hr 49 min 15 sec) 
Finished CPU 0 instructions: 200000003 cycles: 191392962 cumulative IPC: 1.04497 (Simulation time: 1 hr 49 min 15 sec) 

ChampSim completed all CPUs

Region of Interest Statistics

CPU 0 cumulative IPC: 1.04497 instructions: 200000003 cycles: 191392962
ITLB TOTAL     ACCESS:   26768768  HIT:   26768768  MISS:          0  HIT %:        100  MISS %:          0   MPKI: 0
ITLB LOAD TRANSLATION ACCESS:   26768768  HIT:   26768768  MISS:          0  HIT %:        100  MISS %:          0   MPKI: 0
ITLB PREFETCH  REQUESTED:          0  ISSUED:          0  USEFUL:          0  USELESS:          0
ITLB USEFUL LOAD PREFETCHES:          0 PREFETCH ISSUED TO LOWER LEVEL:          0  ACCURACY: -nan
ITLB TIMELY PREFETCHES:          0 LATE PREFETCHES: 0 DROPPED PREFETCHES: 0
ITLB PREFETCHES SAME FILL-ORIGIN LEVEL: 0 DIFFERENT FILL-ORIGIN LEVEL: 0
ITLB AVERAGE MISS LATENCY: -nan cycles
ITLB RQ	ACCESS:   33420516	FORWARD:          0	MERGED:    6651749	TO_CACHE:   26768767

DTLB TOTAL     ACCESS:   53962465  HIT:   53874936  MISS:      87529  HIT %:    99.8378  MISS %:   0.162203   MPKI: 0.437645
DTLB LOAD TRANSLATION ACCESS:   53962465  HIT:   53874936  MISS:      87529  HIT %:    99.8378  MISS %:   0.162203   MPKI: 0.437645
DTLB PREFETCH  REQUESTED:          0  ISSUED:          0  USEFUL:          0  USELESS:          0
DTLB USEFUL LOAD PREFETCHES:          0 PREFETCH ISSUED TO LOWER LEVEL:          0  ACCURACY: -nan
DTLB TIMELY PREFETCHES:          0 LATE PREFETCHES: 0 DROPPED PREFETCHES: 0
DTLB PREFETCHES SAME FILL-ORIGIN LEVEL: 0 DIFFERENT FILL-ORIGIN LEVEL: 0
DTLB AVERAGE MISS LATENCY: 342.045 cycles
DTLB RQ	ACCESS:   58226642	FORWARD:          0	MERGED:    4253901	TO_CACHE:   53972741

STLB TOTAL     ACCESS:   21238054  HIT:   21172298  MISS:      65756  HIT %:    99.6904  MISS %:   0.309614   MPKI: 0.32878
STLB LOAD TRANSLATION ACCESS:      87529  HIT:      21773  MISS:      65756  HIT %:    24.8752  MISS %:    75.1248   MPKI: 0.32878
STLB TRANSLATION FROM L1D PREFETCHER ACCESS:   21150525  HIT:   21150525  MISS:          0  HIT %:        100  MISS %:          0   MPKI: 0
STLB PREFETCH  REQUESTED:          0  ISSUED:          0  USEFUL:          0  USELESS:          0
STLB USEFUL LOAD PREFETCHES:          0 PREFETCH ISSUED TO LOWER LEVEL:          0  ACCURACY: -nan
STLB TIMELY PREFETCHES:          0 LATE PREFETCHES: 3289 DROPPED PREFETCHES: 826653
STLB PREFETCHES SAME FILL-ORIGIN LEVEL: 0 DIFFERENT FILL-ORIGIN LEVEL: 0
STLB AVERAGE MISS LATENCY: 442.147 cycles
STLB RQ	ACCESS:  102684764	FORWARD:          0	MERGED:   80608942	TO_CACHE:   22075822

STLB Hit, L1D data hit: 0
STLB Hit, L2C data hit: 0
STLB Hit, LLC data hit: 0
STLB Hit, LLC data miss: 0
STLB STLB hints to L2: 0
L1D TOTAL     ACCESS:  149719806  HIT:  146805915  MISS:    2913891  HIT %:    98.0538  MISS %:    1.94623   MPKI: 14.5695
L1D LOAD      ACCESS:   51357243  HIT:   51204803  MISS:     152440  HIT %:    99.7032  MISS %:   0.296823   MPKI: 0.7622
L1D RFO       ACCESS:    6710297  HIT:    6689606  MISS:      20691  HIT %:    99.6917  MISS %:   0.308347   MPKI: 0.103455
L1D PREFETCH  ACCESS:   91652266  HIT:   88911506  MISS:    2740760  HIT %:    97.0096  MISS %:    2.99039   MPKI: 13.7038
L1D PREFETCH  REQUESTED:  299293818  ISSUED:  205691540  USEFUL:    2474337  USELESS:     266428
L1D USEFUL LOAD PREFETCHES:    2474337 PREFETCH ISSUED TO LOWER LEVEL:   10245550  ACCURACY: 24.1504
L1D TIMELY PREFETCHES:    2474337 LATE PREFETCHES: 14084 DROPPED PREFETCHES: 2588512
L1D PREFETCHES SAME FILL-ORIGIN LEVEL: 2754845 DIFFERENT FILL-ORIGIN LEVEL: 7490705
L1D AVERAGE MISS LATENCY: 94.4906 cycles
L1D RQ	ACCESS:   76447334	FORWARD:          0	MERGED:   25021356	TO_CACHE:   51425951
L1D WQ	ACCESS:    6800691	FORWARD:         27	MERGED:          0	TO_CACHE:    6800691
L1D PQ	ACCESS:  103094305	FORWARD:          0	MERGED:     497070	TO_CACHE:  102597235

L1D UNIQUE REGIONS ACCESSED: 0
L1D REGIONS CONFLICTS: 0
L1D Cross Page Prefetch Requests: 6982275
L1D Same Page Prefetch Requests: 114194362
L1D ROI Sum of L1D PQ occupancy: 1707955982
L1D PREFETCHES PUSHED FROM L2C: 0
L1I TOTAL     ACCESS:   33420515  HIT:   33420515  MISS:          0  HIT %:        100  MISS %:          0   MPKI: 0
L1I LOAD      ACCESS:   33420515  HIT:   33420515  MISS:          0  HIT %:        100  MISS %:          0   MPKI: 0
L1I PREFETCH  REQUESTED:          0  ISSUED:          0  USEFUL:          0  USELESS:          0
L1I USEFUL LOAD PREFETCHES:          0 PREFETCH ISSUED TO LOWER LEVEL:          0  ACCURACY: -nan
L1I TIMELY PREFETCHES:          0 LATE PREFETCHES: 0 DROPPED PREFETCHES: 0
L1I PREFETCHES SAME FILL-ORIGIN LEVEL: 0 DIFFERENT FILL-ORIGIN LEVEL: 0
L1I AVERAGE MISS LATENCY: -nan cycles
L1I RQ	ACCESS:   53489782	FORWARD:          0	MERGED:   20069266	TO_CACHE:   33420516

BTB TOTAL     ACCESS:   10024821  HIT:   10024810  MISS:         11  HIT %:    99.9999  MISS %: 0.000109728   MPKI: 5.5e-05
BTB BRANCH_DIRECT_JUMP	ACCESS:        162  HIT:        161  MISS:          1
BTB BRANCH_INDIRECT	ACCESS:          0  HIT:          0  MISS:          0
BTB BRANCH_CONDITIONAL	ACCESS:   10024335  HIT:   10024327  MISS:          8
BTB BRANCH_DIRECT_CALL	ACCESS:        162  HIT:        161  MISS:          1
BTB BRANCH_INDIRECT_CALL	ACCESS:          0  HIT:          0  MISS:          0
BTB BRANCH_RETURN	ACCESS:        162  HIT:        161  MISS:          1
BTB BRANCH_OTHER ACCESS:          0  HIT:          0  MISS:          0

L2C TOTAL     ACCESS:   11052924  HIT:    8124768  MISS:    2928156  HIT %:    73.5079  MISS %:    26.4921   MPKI: 14.6408
L2C LOAD      ACCESS:     138324  HIT:      49570  MISS:      88754  HIT %:    35.8362  MISS %:    64.1638   MPKI: 0.44377
L2C DATA LOAD MPKI: 0.44377
L2C INSTRUCTION LOAD MPKI: 0
L2C RFO       ACCESS:      20691  HIT:       2832  MISS:      17859  HIT %:    13.6871  MISS %:    86.3129   MPKI: 0.089295
L2C PREFETCH  ACCESS:    9846834  HIT:    7091503  MISS:    2755331  HIT %:    72.0181  MISS %:    27.9819   MPKI: 13.7767
L2C DATA PREFETCH MPKI: 13.7767
L2C INSTRUCTION PREFETCH MPKI: 0
L2C WRITEBACK ACCESS:      78294  HIT:      61853  MISS:      16441  HIT %:    79.0009  MISS %:    20.9991   MPKI: 0.082205
L2C LOAD TRANSLATION ACCESS:      98697  HIT:      54020  MISS:      44677  HIT %:    54.7332  MISS %:    45.2668   MPKI: 0.223385
L2C TRANSLATION FROM L1D PREFETCHER ACCESS:     870084  HIT:     864990  MISS:       5094  HIT %:    99.4145  MISS %:   0.585461   MPKI: 0.02547
L2C PREFETCH  REQUESTED:          0  ISSUED:          0  USEFUL:      26930  USELESS:    2733558
L2C USEFUL LOAD PREFETCHES:      26930 PREFETCH ISSUED TO LOWER LEVEL:    2755468  ACCURACY: 0.977329
L2C TIMELY PREFETCHES:      26930 LATE PREFETCHES: 135 DROPPED PREFETCHES: 0
L2C PREFETCHES SAME FILL-ORIGIN LEVEL: 941569 DIFFERENT FILL-ORIGIN LEVEL: 0
L2C AVERAGE MISS LATENCY: 116.018 cycles
L2C RQ	ACCESS:    1127828	FORWARD:          0	MERGED:          0	TO_CACHE:    1127796
L2C WQ	ACCESS:      78294	FORWARD:        160	MERGED:          0	TO_CACHE:      78294
L2C PQ	ACCESS:   10245550	FORWARD:          0	MERGED:          0	TO_CACHE:   10245422

L2C Instructions Evicting Data 0
L2C Translations Evicting Data 48867
L2C Data Evicting Data 2813339
L2C Instructions Evicting Instructions 0
L2C Translations Evicting Instructions 0
L2C Data Evicting Instructions 0
L2C Instructions Evicting Translations 0
L2C Translations Evicting Translations 904
L2C Data Evicting Translations 48605
L2C Dense regions hint from L2: 0
PSCL5 TOTAL     ACCESS:     895698  HIT:     895698  MISS:          0  HIT %:        100  MISS %:          0   MPKI: 0
PSCL5 LOAD TRANSLATION ACCESS:      65756  HIT:      65756  MISS:          0  HIT %:        100  MISS %:          0   MPKI: 0
PSCL5 TRANSLATION FROM L1D PREFETCHER ACCESS:     829942  HIT:     829942  MISS:          0  HIT %:        100  MISS %:          0   MPKI: 0
PSCL5 PREFETCH  REQUESTED:          0  ISSUED:          0  USEFUL:          0  USELESS:          0
PSCL5 USEFUL LOAD PREFETCHES:          0 PREFETCH ISSUED TO LOWER LEVEL:          0  ACCURACY: -nan
PSCL5 TIMELY PREFETCHES:          0 LATE PREFETCHES: 0 DROPPED PREFETCHES: 0
PSCL5 PREFETCHES SAME FILL-ORIGIN LEVEL: 0 DIFFERENT FILL-ORIGIN LEVEL: 0

PSCL4 TOTAL     ACCESS:     895698  HIT:     895698  MISS:          0  HIT %:        100  MISS %:          0   MPKI: 0
PSCL4 LOAD TRANSLATION ACCESS:      65756  HIT:      65756  MISS:          0  HIT %:        100  MISS %:          0   MPKI: 0
PSCL4 TRANSLATION FROM L1D PREFETCHER ACCESS:     829942  HIT:     829942  MISS:          0  HIT %:        100  MISS %:          0   MPKI: 0
PSCL4 PREFETCH  REQUESTED:          0  ISSUED:          0  USEFUL:          0  USELESS:          0
PSCL4 USEFUL LOAD PREFETCHES:          0 PREFETCH ISSUED TO LOWER LEVEL:          0  ACCURACY: -nan
PSCL4 TIMELY PREFETCHES:          0 LATE PREFETCHES: 0 DROPPED PREFETCHES: 0
PSCL4 PREFETCHES SAME FILL-ORIGIN LEVEL: 0 DIFFERENT FILL-ORIGIN LEVEL: 0

PSCL3 TOTAL     ACCESS:     894590  HIT:     894513  MISS:         77  HIT %:    99.9914  MISS %: 0.00860729   MPKI: 0.000385
PSCL3 LOAD TRANSLATION ACCESS:      65754  HIT:      65677  MISS:         77  HIT %:    99.8829  MISS %:   0.117103   MPKI: 0.000385
PSCL3 TRANSLATION FROM L1D PREFETCHER ACCESS:     828836  HIT:     828836  MISS:          0  HIT %:        100  MISS %:          0   MPKI: 0
PSCL3 PREFETCH  REQUESTED:          0  ISSUED:          0  USEFUL:          0  USELESS:          0
PSCL3 USEFUL LOAD PREFETCHES:          0 PREFETCH ISSUED TO LOWER LEVEL:          0  ACCURACY: -nan
PSCL3 TIMELY PREFETCHES:          0 LATE PREFETCHES: 0 DROPPED PREFETCHES: 0
PSCL3 PREFETCHES SAME FILL-ORIGIN LEVEL: 0 DIFFERENT FILL-ORIGIN LEVEL: 0

PSCL2 TOTAL     ACCESS:     855061  HIT:     821938  MISS:      33123  HIT %:    96.1262  MISS %:    3.87376   MPKI: 0.165615
PSCL2 LOAD TRANSLATION ACCESS:      65756  HIT:      32633  MISS:      33123  HIT %:    49.6274  MISS %:    50.3726   MPKI: 0.165615
PSCL2 TRANSLATION FROM L1D PREFETCHER ACCESS:     789305  HIT:     789305  MISS:          0  HIT %:        100  MISS %:          0   MPKI: 0
PSCL2 PREFETCH  REQUESTED:          0  ISSUED:          0  USEFUL:          0  USELESS:          0
PSCL2 USEFUL LOAD PREFETCHES:          0 PREFETCH ISSUED TO LOWER LEVEL:          0  ACCURACY: -nan
PSCL2 TIMELY PREFETCHES:          0 LATE PREFETCHES: 0 DROPPED PREFETCHES: 0
PSCL2 PREFETCHES SAME FILL-ORIGIN LEVEL: 0 DIFFERENT FILL-ORIGIN LEVEL: 0

LLC TOTAL     ACCESS:    2934467  HIT:     454360  MISS:    2480107  HIT %:    15.4836  MISS %:    84.5164   MPKI: 12.4005
LLC LOAD      ACCESS:      88619  HIT:       7287  MISS:      81332  HIT %:    8.22284  MISS %:    91.7772   MPKI: 0.40666
LLC RFO       ACCESS:      17859  HIT:        579  MISS:      17280  HIT %:    3.24206  MISS %:    96.7579   MPKI: 0.0864
LLC PREFETCH  ACCESS:    2755465  HIT:     406046  MISS:    2349419  HIT %:     14.736  MISS %:     85.264   MPKI: 11.7471
LLC WRITEBACK ACCESS:      22753  HIT:       9881  MISS:      12872  HIT %:    43.4272  MISS %:    56.5728   MPKI: 0.06436
LLC LOAD TRANSLATION ACCESS:      44677  HIT:      30370  MISS:      14307  HIT %:    67.9768  MISS %:    32.0232   MPKI: 0.071535
LLC TRANSLATION FROM L1D PREFETCHER ACCESS:       5094  HIT:        197  MISS:       4897  HIT %:    3.86729  MISS %:    96.1327   MPKI: 0.024485
LLC PREFETCH  REQUESTED:          0  ISSUED:          0  USEFUL:       4223  USELESS:    2350128
LLC USEFUL LOAD PREFETCHES:       4223 PREFETCH ISSUED TO LOWER LEVEL:    2349421  ACCURACY: 0.179746
LLC TIMELY PREFETCHES:       4223 LATE PREFETCHES: 0 DROPPED PREFETCHES: 0
LLC PREFETCHES SAME FILL-ORIGIN LEVEL: 0 DIFFERENT FILL-ORIGIN LEVEL: 0
LLC AVERAGE MISS LATENCY: 99.2345 cycles
LLC RQ	ACCESS:     156249	FORWARD:          0	MERGED:          0	TO_CACHE:     156249
LLC WQ	ACCESS:      22753	FORWARD:          1	MERGED:          0	TO_CACHE:      22753
LLC PQ	ACCESS:    2755468	FORWARD:          0	MERGED:          0	TO_CACHE:    2755467

LLC Dense regions hint to LLC: 0

RAW hits: 406
Loads Generated: 76447740
Loads sent to L1D: 76447334
Stores Generated: 6800691
Stores sent to L1D: 6800691
Major fault: 0 Minor fault: 82777
Allocated PAGES: 82777

DRAM Statistics
 CHANNEL 0
 RQ ROW_BUFFER_HIT:    1995019  ROW_BUFFER_MISS:     472217
 DBUS_CONGESTED:       1173
 WQ ROW_BUFFER_HIT:       6140  ROW_BUFFER_MISS:      15096  FULL:          0

 AVG_CONGESTED_CYCLE: 4
 All warmup complete: 2
Channel 0 Bank busy for read cycles: 0
Channel 0 Bank busy for write cycles: 0
Channel 0
Rank 0
0banks busy for read cycles: 101294238
0banks busy for write cycles: 16050
1banks busy for read cycles: 49736761
1banks busy for write cycles: 3175464
2banks busy for read cycles: 18543640
2banks busy for write cycles: 568942
3banks busy for read cycles: 6815796
3banks busy for write cycles: 167658
4banks busy for read cycles: 3528677
4banks busy for write cycles: 48840
5banks busy for read cycles: 2173310
5banks busy for write cycles: 12744
6banks busy for read cycles: 1415349
6banks busy for write cycles: 4894
7banks busy for read cycles: 1256061
7banks busy for write cycles: 2130
8banks busy for read cycles: 2632409
8banks busy for write cycles: 0

CPU 0 Branch Prediction Accuracy: 99.9335% MPKI: 0.03342 Average ROB Occupancy at Mispredict: 67.3103
Branch types
NOT_BRANCH: 189955093 94.9775%
BRANCH_DIRECT_JUMP: 162 8.1e-05%
BRANCH_INDIRECT: 0 0%
BRANCH_CONDITIONAL: 10044111 5.02206%
BRANCH_DIRECT_CALL: 162 8.1e-05%
BRANCH_INDIRECT_CALL: 0 0%
BRANCH_RETURN: 162 8.1e-05%
BRANCH_OTHER: 0 0%

DRAM PAGES: 1048576
Allocated PAGES: 82777
