526208 bits of metadata so far, 405638 left out of 526336 total budget
table size is 13521 bits, 2253 entries for 5 bit, 1931 entries for 6 bit
526208 total bits (64.23KB)

*** ChampSim Multicore Out-of-Order Simulator ***

Warmup Instructions: 50000000
Simulation Instructions: 200000000
Number of CPUs: 1
LLC sets: 2048
LLC ways: 16
Off-chip DRAM Size: 4096 MB Channels: 1 Width: 64-bit Data Rate: 6400 MT/s
argv[0]: ./ChampSim/Berti/bin/multiperspective_perceptron-no-vberti-no-no-no-no-no-lru-lru-lru-srrip-drrip-lru-lru-lru-1core-no
argv[1]: -warmup_instructions
argv[2]: 50000000
argv[3]: -simulation_instructions
argv[4]: 200000000
argv[5]: -traces
argv[6]: traces/spec2k17_ten/654.roms_s-842B.champsimtrace.xz
CPU 0 runs traces/spec2k17_ten/654.roms_s-842B.champsimtrace.xz
.xz
CPU 0 Multiperspective perceptron branch predictor
BTB has LRU replacement policy
ITLB has LRU replacement policy
DTLB has LRU replacement policy
STLB has LRU replacement policy
L1I has LRU replacement policy
History Sets: 8
History Ways: 16
BERTI Size: 16
BERTI Stride Size: 16
L1D has LRU replacement policy
Initialize SRRIP state for L2C
Initialize DRRIP state for LLC
Heartbeat CPU 0 instructions: 10000000 cycles: 2692820 heartbeat IPC: 3.71358 cumulative IPC: 3.71358 (Simulation time: 0 hr 5 min 37 sec) 
Heartbeat CPU 0 instructions: 20000002 cycles: 5419175 heartbeat IPC: 3.6679 cumulative IPC: 3.6906 (Simulation time: 0 hr 11 min 35 sec) 
Heartbeat CPU 0 instructions: 30000002 cycles: 8094656 heartbeat IPC: 3.73765 cumulative IPC: 3.70615 (Simulation time: 0 hr 16 min 29 sec) 
Heartbeat CPU 0 instructions: 40000000 cycles: 10826721 heartbeat IPC: 3.66023 cumulative IPC: 3.69456 (Simulation time: 0 hr 20 min 28 sec) 
Heartbeat CPU 0 instructions: 50000003 cycles: 13684838 heartbeat IPC: 3.49881 cumulative IPC: 3.65368 (Simulation time: 0 hr 24 min 48 sec) 

Warmup complete CPU 0 instructions: 50000003 cycles: 13684838 (Simulation time: 0 hr 24 min 48 sec) 

Heartbeat CPU 0 instructions: 60000000 cycles: 27753530 heartbeat IPC: 0.710798 cumulative IPC: 0.710798 (Simulation time: 0 hr 29 min 34 sec) 
Heartbeat CPU 0 instructions: 70000001 cycles: 41771010 heartbeat IPC: 0.713395 cumulative IPC: 0.712094 (Simulation time: 0 hr 33 min 32 sec) 
Heartbeat CPU 0 instructions: 80000000 cycles: 55832581 heartbeat IPC: 0.711158 cumulative IPC: 0.711782 (Simulation time: 0 hr 37 min 29 sec) 
Heartbeat CPU 0 instructions: 90000002 cycles: 69945561 heartbeat IPC: 0.708568 cumulative IPC: 0.710976 (Simulation time: 0 hr 41 min 48 sec) 
Heartbeat CPU 0 instructions: 100000002 cycles: 83882017 heartbeat IPC: 0.717543 cumulative IPC: 0.712279 (Simulation time: 0 hr 47 min 13 sec) 
Heartbeat CPU 0 instructions: 110000000 cycles: 98072271 heartbeat IPC: 0.704709 cumulative IPC: 0.711006 (Simulation time: 0 hr 52 min 12 sec) 
Heartbeat CPU 0 instructions: 120000003 cycles: 112043037 heartbeat IPC: 0.715781 cumulative IPC: 0.711684 (Simulation time: 0 hr 57 min 11 sec) 
Heartbeat CPU 0 instructions: 130000003 cycles: 125942139 heartbeat IPC: 0.719471 cumulative IPC: 0.712649 (Simulation time: 1 hr 1 min 51 sec) 
Heartbeat CPU 0 instructions: 140000000 cycles: 140080162 heartbeat IPC: 0.707312 cumulative IPC: 0.712052 (Simulation time: 1 hr 6 min 7 sec) 
Heartbeat CPU 0 instructions: 150000000 cycles: 154267730 heartbeat IPC: 0.704842 cumulative IPC: 0.711324 (Simulation time: 1 hr 11 min 11 sec) 
Heartbeat CPU 0 instructions: 160000000 cycles: 168237047 heartbeat IPC: 0.715855 cumulative IPC: 0.711734 (Simulation time: 1 hr 15 min 10 sec) 
Heartbeat CPU 0 instructions: 170000000 cycles: 182294614 heartbeat IPC: 0.711361 cumulative IPC: 0.711702 (Simulation time: 1 hr 19 min 24 sec) 
Heartbeat CPU 0 instructions: 180000003 cycles: 196510339 heartbeat IPC: 0.703447 cumulative IPC: 0.711061 (Simulation time: 1 hr 24 min 5 sec) 
Heartbeat CPU 0 instructions: 190000000 cycles: 210648515 heartbeat IPC: 0.707305 cumulative IPC: 0.710791 (Simulation time: 1 hr 28 min 36 sec) 
Heartbeat CPU 0 instructions: 200000003 cycles: 224699851 heartbeat IPC: 0.711676 cumulative IPC: 0.71085 (Simulation time: 1 hr 32 min 26 sec) 
Heartbeat CPU 0 instructions: 210000002 cycles: 238615804 heartbeat IPC: 0.7186 cumulative IPC: 0.711329 (Simulation time: 1 hr 35 min 27 sec) 
Heartbeat CPU 0 instructions: 220000000 cycles: 252741776 heartbeat IPC: 0.707916 cumulative IPC: 0.711128 (Simulation time: 1 hr 38 min 39 sec) 
Heartbeat CPU 0 instructions: 230000001 cycles: 266633686 heartbeat IPC: 0.719844 cumulative IPC: 0.711606 (Simulation time: 1 hr 41 min 25 sec) 
Heartbeat CPU 0 instructions: 240000003 cycles: 280733560 heartbeat IPC: 0.709226 cumulative IPC: 0.711481 (Simulation time: 1 hr 43 min 56 sec) 
Heartbeat CPU 0 instructions: 250000001 cycles: 294816712 heartbeat IPC: 0.710068 cumulative IPC: 0.71141 (Simulation time: 1 hr 45 min 54 sec) 
Finished CPU 0 instructions: 200000002 cycles: 281131875 cumulative IPC: 0.71141 (Simulation time: 1 hr 45 min 54 sec) 

ChampSim completed all CPUs

Region of Interest Statistics

CPU 0 cumulative IPC: 0.71141 instructions: 200000002 cycles: 281131875
ITLB TOTAL     ACCESS:   30178546  HIT:   30178546  MISS:          0  HIT %:        100  MISS %:          0   MPKI: 0
ITLB LOAD TRANSLATION ACCESS:   30178546  HIT:   30178546  MISS:          0  HIT %:        100  MISS %:          0   MPKI: 0
ITLB PREFETCH  REQUESTED:          0  ISSUED:          0  USEFUL:          0  USELESS:          0
ITLB USEFUL LOAD PREFETCHES:          0 PREFETCH ISSUED TO LOWER LEVEL:          0  ACCURACY: -nan
ITLB TIMELY PREFETCHES:          0 LATE PREFETCHES: 0 DROPPED PREFETCHES: 0
ITLB PREFETCHES SAME FILL-ORIGIN LEVEL: 0 DIFFERENT FILL-ORIGIN LEVEL: 0
ITLB AVERAGE MISS LATENCY: -nan cycles
ITLB RQ	ACCESS:   37721571	FORWARD:          0	MERGED:    7543024	TO_CACHE:   30178547

DTLB TOTAL     ACCESS:   31517519  HIT:   31516822  MISS:        697  HIT %:    99.9978  MISS %: 0.00221147   MPKI: 0.003485
DTLB LOAD TRANSLATION ACCESS:   31517519  HIT:   31516822  MISS:        697  HIT %:    99.9978  MISS %: 0.00221147   MPKI: 0.003485
DTLB PREFETCH  REQUESTED:          0  ISSUED:          0  USEFUL:          0  USELESS:          0
DTLB USEFUL LOAD PREFETCHES:          0 PREFETCH ISSUED TO LOWER LEVEL:          0  ACCURACY: -nan
DTLB TIMELY PREFETCHES:          0 LATE PREFETCHES: 0 DROPPED PREFETCHES: 0
DTLB PREFETCHES SAME FILL-ORIGIN LEVEL: 0 DIFFERENT FILL-ORIGIN LEVEL: 0
DTLB AVERAGE MISS LATENCY: 119.333 cycles
DTLB RQ	ACCESS:   37179507	FORWARD:          0	MERGED:    5661941	TO_CACHE:   31517566

STLB TOTAL     ACCESS:     167241  HIT:     166619  MISS:        622  HIT %:    99.6281  MISS %:   0.371918   MPKI: 0.00311
STLB LOAD TRANSLATION ACCESS:        697  HIT:         75  MISS:        622  HIT %:    10.7604  MISS %:    89.2396   MPKI: 0.00311
STLB TRANSLATION FROM L1D PREFETCHER ACCESS:     166544  HIT:     166544  MISS:          0  HIT %:        100  MISS %:          0   MPKI: 0
STLB PREFETCH  REQUESTED:          0  ISSUED:          0  USEFUL:          0  USELESS:          0
STLB USEFUL LOAD PREFETCHES:          0 PREFETCH ISSUED TO LOWER LEVEL:          0  ACCURACY: -nan
STLB TIMELY PREFETCHES:          0 LATE PREFETCHES: 39 DROPPED PREFETCHES: 26832
STLB PREFETCHES SAME FILL-ORIGIN LEVEL: 0 DIFFERENT FILL-ORIGIN LEVEL: 0
STLB AVERAGE MISS LATENCY: 124.143 cycles
STLB RQ	ACCESS:    1257222	FORWARD:          0	MERGED:    1060580	TO_CACHE:     196642

STLB Hit, L1D data hit: 0
STLB Hit, L2C data hit: 0
STLB Hit, LLC data hit: 0
STLB Hit, LLC data miss: 0
STLB STLB hints to L2: 0
L1D TOTAL     ACCESS:   38117537  HIT:   38087232  MISS:      30305  HIT %:    99.9205  MISS %:  0.0795041   MPKI: 0.151525
L1D LOAD      ACCESS:   22445550  HIT:   22444739  MISS:        811  HIT %:    99.9964  MISS %: 0.00361319   MPKI: 0.004055
L1D RFO       ACCESS:   14732397  HIT:   14720516  MISS:      11881  HIT %:    99.9194  MISS %:  0.0806454   MPKI: 0.059405
L1D PREFETCH  ACCESS:     939590  HIT:     921977  MISS:      17613  HIT %:    98.1255  MISS %:    1.87454   MPKI: 0.088065
L1D PREFETCH  REQUESTED:    2620356  ISSUED:    2620354  USEFUL:      16536  USELESS:       1108
L1D USEFUL LOAD PREFETCHES:      16536 PREFETCH ISSUED TO LOWER LEVEL:     232289  ACCURACY: 7.11872
L1D TIMELY PREFETCHES:      16536 LATE PREFETCHES: 90 DROPPED PREFETCHES: 87438
L1D PREFETCHES SAME FILL-ORIGIN LEVEL: 17703 DIFFERENT FILL-ORIGIN LEVEL: 214586
L1D AVERAGE MISS LATENCY: 83.8937 cycles
L1D RQ	ACCESS:   31556298	FORWARD:          0	MERGED:    8800635	TO_CACHE:   22446538
L1D WQ	ACCESS:   14910203	FORWARD:     309125	MERGED:     177234	TO_CACHE:   14732969
L1D PQ	ACCESS:    1363829	FORWARD:          0	MERGED:     107304	TO_CACHE:    1256525

L1D UNIQUE REGIONS ACCESSED: 0
L1D REGIONS CONFLICTS: 0
L1D Cross Page Prefetch Requests: 151593
L1D Same Page Prefetch Requests: 1537519
L1D ROI Sum of L1D PQ occupancy: 20359787
L1D PREFETCHES PUSHED FROM L2C: 0
L1I TOTAL     ACCESS:   37721569  HIT:   37721569  MISS:          0  HIT %:        100  MISS %:          0   MPKI: 0
L1I LOAD      ACCESS:   37721569  HIT:   37721569  MISS:          0  HIT %:        100  MISS %:          0   MPKI: 0
L1I PREFETCH  REQUESTED:          0  ISSUED:          0  USEFUL:          0  USELESS:          0
L1I USEFUL LOAD PREFETCHES:          0 PREFETCH ISSUED TO LOWER LEVEL:          0  ACCURACY: -nan
L1I TIMELY PREFETCHES:          0 LATE PREFETCHES: 0 DROPPED PREFETCHES: 0
L1I PREFETCHES SAME FILL-ORIGIN LEVEL: 0 DIFFERENT FILL-ORIGIN LEVEL: 0
L1I AVERAGE MISS LATENCY: -nan cycles
L1I RQ	ACCESS:   52485000	FORWARD:          0	MERGED:   14763429	TO_CACHE:   37721571

BTB TOTAL     ACCESS:   26011261  HIT:   25138873  MISS:     872388  HIT %:    96.6461  MISS %:    3.35389   MPKI: 4.36194
BTB BRANCH_DIRECT_JUMP	ACCESS:    3269630  HIT:    3269599  MISS:         31
BTB BRANCH_INDIRECT	ACCESS:     123834  HIT:     123833  MISS:          1
BTB BRANCH_CONDITIONAL	ACCESS:   19854327  HIT:   19854238  MISS:         89
BTB BRANCH_DIRECT_CALL	ACCESS:    1381737  HIT:    1381694  MISS:         43
BTB BRANCH_INDIRECT_CALL	ACCESS:          0  HIT:          0  MISS:          0
BTB BRANCH_RETURN	ACCESS:    1381733  HIT:     509509  MISS:     872224
BTB BRANCH_OTHER ACCESS:          0  HIT:          0  MISS:          0

L2C TOTAL     ACCESS:     272446  HIT:     241892  MISS:      30554  HIT %:    88.7853  MISS %:    11.2147   MPKI: 0.15277
L2C LOAD      ACCESS:        721  HIT:        227  MISS:        494  HIT %:     31.484  MISS %:     68.516   MPKI: 0.00247
L2C DATA LOAD MPKI: 0.00247
L2C INSTRUCTION LOAD MPKI: 0
L2C RFO       ACCESS:      11881  HIT:        493  MISS:      11388  HIT %:    4.14948  MISS %:    95.8505   MPKI: 0.05694
L2C PREFETCH  ACCESS:     220501  HIT:     202120  MISS:      18381  HIT %:     91.664  MISS %:    8.33602   MPKI: 0.091905
L2C DATA PREFETCH MPKI: 0.091905
L2C INSTRUCTION PREFETCH MPKI: 0
L2C WRITEBACK ACCESS:      11850  HIT:      11650  MISS:        200  HIT %:    98.3122  MISS %:    1.68776   MPKI: 0.001
L2C LOAD TRANSLATION ACCESS:        622  HIT:        586  MISS:         36  HIT %:    94.2122  MISS %:    5.78778   MPKI: 0.00018
L2C TRANSLATION FROM L1D PREFETCHER ACCESS:      26871  HIT:      26816  MISS:         55  HIT %:    99.7953  MISS %:   0.204682   MPKI: 0.000275
L2C PREFETCH  REQUESTED:          0  ISSUED:          0  USEFUL:        125  USELESS:      17162
L2C USEFUL LOAD PREFETCHES:        125 PREFETCH ISSUED TO LOWER LEVEL:      18381  ACCURACY: 0.68005
L2C TIMELY PREFETCHES:        125 LATE PREFETCHES: 0 DROPPED PREFETCHES: 0
L2C PREFETCHES SAME FILL-ORIGIN LEVEL: 12555 DIFFERENT FILL-ORIGIN LEVEL: 0
L2C AVERAGE MISS LATENCY: 117.838 cycles
L2C RQ	ACCESS:      40095	FORWARD:          0	MERGED:          0	TO_CACHE:      40095
L2C WQ	ACCESS:      11850	FORWARD:          0	MERGED:          0	TO_CACHE:      11850
L2C PQ	ACCESS:     232289	FORWARD:          0	MERGED:          0	TO_CACHE:     232289

L2C Instructions Evicting Data 0
L2C Translations Evicting Data 90
L2C Data Evicting Data 29198
L2C Instructions Evicting Instructions 0
L2C Translations Evicting Instructions 0
L2C Data Evicting Instructions 65
L2C Instructions Evicting Translations 0
L2C Translations Evicting Translations 0
L2C Data Evicting Translations 83
L2C Dense regions hint from L2: 0
PSCL5 TOTAL     ACCESS:      27493  HIT:      27493  MISS:          0  HIT %:        100  MISS %:          0   MPKI: 0
PSCL5 LOAD TRANSLATION ACCESS:        622  HIT:        622  MISS:          0  HIT %:        100  MISS %:          0   MPKI: 0
PSCL5 TRANSLATION FROM L1D PREFETCHER ACCESS:      26871  HIT:      26871  MISS:          0  HIT %:        100  MISS %:          0   MPKI: 0
PSCL5 PREFETCH  REQUESTED:          0  ISSUED:          0  USEFUL:          0  USELESS:          0
PSCL5 USEFUL LOAD PREFETCHES:          0 PREFETCH ISSUED TO LOWER LEVEL:          0  ACCURACY: -nan
PSCL5 TIMELY PREFETCHES:          0 LATE PREFETCHES: 0 DROPPED PREFETCHES: 0
PSCL5 PREFETCHES SAME FILL-ORIGIN LEVEL: 0 DIFFERENT FILL-ORIGIN LEVEL: 0

PSCL4 TOTAL     ACCESS:      27493  HIT:      27493  MISS:          0  HIT %:        100  MISS %:          0   MPKI: 0
PSCL4 LOAD TRANSLATION ACCESS:        622  HIT:        622  MISS:          0  HIT %:        100  MISS %:          0   MPKI: 0
PSCL4 TRANSLATION FROM L1D PREFETCHER ACCESS:      26871  HIT:      26871  MISS:          0  HIT %:        100  MISS %:          0   MPKI: 0
PSCL4 PREFETCH  REQUESTED:          0  ISSUED:          0  USEFUL:          0  USELESS:          0
PSCL4 USEFUL LOAD PREFETCHES:          0 PREFETCH ISSUED TO LOWER LEVEL:          0  ACCURACY: -nan
PSCL4 TIMELY PREFETCHES:          0 LATE PREFETCHES: 0 DROPPED PREFETCHES: 0
PSCL4 PREFETCHES SAME FILL-ORIGIN LEVEL: 0 DIFFERENT FILL-ORIGIN LEVEL: 0

PSCL3 TOTAL     ACCESS:      27493  HIT:      27493  MISS:          0  HIT %:        100  MISS %:          0   MPKI: 0
PSCL3 LOAD TRANSLATION ACCESS:        622  HIT:        622  MISS:          0  HIT %:        100  MISS %:          0   MPKI: 0
PSCL3 TRANSLATION FROM L1D PREFETCHER ACCESS:      26871  HIT:      26871  MISS:          0  HIT %:        100  MISS %:          0   MPKI: 0
PSCL3 PREFETCH  REQUESTED:          0  ISSUED:          0  USEFUL:          0  USELESS:          0
PSCL3 USEFUL LOAD PREFETCHES:          0 PREFETCH ISSUED TO LOWER LEVEL:          0  ACCURACY: -nan
PSCL3 TIMELY PREFETCHES:          0 LATE PREFETCHES: 0 DROPPED PREFETCHES: 0
PSCL3 PREFETCHES SAME FILL-ORIGIN LEVEL: 0 DIFFERENT FILL-ORIGIN LEVEL: 0

PSCL2 TOTAL     ACCESS:      27435  HIT:      27434  MISS:          1  HIT %:    99.9964  MISS %: 0.00364498   MPKI: 5e-06
PSCL2 LOAD TRANSLATION ACCESS:        622  HIT:        621  MISS:          1  HIT %:    99.8392  MISS %:   0.160772   MPKI: 5e-06
PSCL2 TRANSLATION FROM L1D PREFETCHER ACCESS:      26813  HIT:      26813  MISS:          0  HIT %:        100  MISS %:          0   MPKI: 0
PSCL2 PREFETCH  REQUESTED:          0  ISSUED:          0  USEFUL:          0  USELESS:          0
PSCL2 USEFUL LOAD PREFETCHES:          0 PREFETCH ISSUED TO LOWER LEVEL:          0  ACCURACY: -nan
PSCL2 TIMELY PREFETCHES:          0 LATE PREFETCHES: 0 DROPPED PREFETCHES: 0
PSCL2 PREFETCHES SAME FILL-ORIGIN LEVEL: 0 DIFFERENT FILL-ORIGIN LEVEL: 0

LLC TOTAL     ACCESS:      41857  HIT:      11360  MISS:      30497  HIT %:      27.14  MISS %:      72.86   MPKI: 0.152485
LLC LOAD      ACCESS:        494  HIT:         12  MISS:        482  HIT %:    2.42915  MISS %:    97.5709   MPKI: 0.00241
LLC RFO       ACCESS:      11388  HIT:         19  MISS:      11369  HIT %:   0.166842  MISS %:    99.8332   MPKI: 0.056845
LLC PREFETCH  ACCESS:      18381  HIT:          0  MISS:      18381  HIT %:          0  MISS %:        100   MPKI: 0.091905
LLC WRITEBACK ACCESS:      11503  HIT:      11329  MISS:        174  HIT %:    98.4874  MISS %:    1.51265   MPKI: 0.00087
LLC LOAD TRANSLATION ACCESS:         36  HIT:          0  MISS:         36  HIT %:          0  MISS %:        100   MPKI: 0.00018
LLC TRANSLATION FROM L1D PREFETCHER ACCESS:         55  HIT:          0  MISS:         55  HIT %:          0  MISS %:        100   MPKI: 0.000275
LLC PREFETCH  REQUESTED:          0  ISSUED:          0  USEFUL:          0  USELESS:       5372
LLC USEFUL LOAD PREFETCHES:          0 PREFETCH ISSUED TO LOWER LEVEL:      18381  ACCURACY: 0
LLC TIMELY PREFETCHES:          0 LATE PREFETCHES: 0 DROPPED PREFETCHES: 0
LLC PREFETCHES SAME FILL-ORIGIN LEVEL: 0 DIFFERENT FILL-ORIGIN LEVEL: 0
LLC AVERAGE MISS LATENCY: 88.1417 cycles
LLC RQ	ACCESS:      11973	FORWARD:          0	MERGED:          0	TO_CACHE:      11973
LLC WQ	ACCESS:      11503	FORWARD:          0	MERGED:          0	TO_CACHE:      11503
LLC PQ	ACCESS:      18381	FORWARD:          0	MERGED:          0	TO_CACHE:      18381

LLC Dense regions hint to LLC: 0

RAW hits: 1898325
Loads Generated: 33454623
Loads sent to L1D: 31556298
Stores Generated: 14910206
Stores sent to L1D: 14910203
Major fault: 0 Minor fault: 919
Allocated PAGES: 919

DRAM Statistics
 CHANNEL 0
 RQ ROW_BUFFER_HIT:      25234  ROW_BUFFER_MISS:       5089
 DBUS_CONGESTED:          0
 WQ ROW_BUFFER_HIT:        725  ROW_BUFFER_MISS:       2412  FULL:          0

 AVG_CONGESTED_CYCLE: -
 All warmup complete: 2
Channel 0 Bank busy for read cycles: 0
Channel 0 Bank busy for write cycles: 0
Channel 0
Rank 0
0banks busy for read cycles: 279045977
0banks busy for write cycles: 2002
1banks busy for read cycles: 1573703
1banks busy for write cycles: 315999
2banks busy for read cycles: 103195
2banks busy for write cycles: 30587
3banks busy for read cycles: 5708
3banks busy for write cycles: 7133
4banks busy for read cycles: 2586
4banks busy for write cycles: 2615
5banks busy for read cycles: 2977
5banks busy for write cycles: 1505
6banks busy for read cycles: 2661
6banks busy for write cycles: 2032
7banks busy for read cycles: 2601
7banks busy for write cycles: 2746
8banks busy for read cycles: 21054
8banks busy for write cycles: 6795

CPU 0 Branch Prediction Accuracy: 99.9606% MPKI: 0.052695 Average ROB Occupancy at Mispredict: 40.6961
Branch types
NOT_BRANCH: 167116679 83.5583%
BRANCH_DIRECT_JUMP: 3269630 1.63481%
BRANCH_INDIRECT: 123834 0.061917%
BRANCH_CONDITIONAL: 26726130 13.3631%
BRANCH_DIRECT_CALL: 1381737 0.690868%
BRANCH_INDIRECT_CALL: 0 0%
BRANCH_RETURN: 1381733 0.690866%
BRANCH_OTHER: 0 0%

DRAM PAGES: 1048576
Allocated PAGES: 919
