526208 bits of metadata so far, 405638 left out of 526336 total budget
table size is 13521 bits, 2253 entries for 5 bit, 1931 entries for 6 bit
526208 total bits (64.23KB)

*** ChampSim Multicore Out-of-Order Simulator ***

Warmup Instructions: 50000000
Simulation Instructions: 200000000
Number of CPUs: 1
LLC sets: 2048
LLC ways: 16
Off-chip DRAM Size: 4096 MB Channels: 1 Width: 64-bit Data Rate: 6400 MT/s
argv[0]: ./ChampSim/Berti/bin/multiperspective_perceptron-no-vberti-no-no-no-no-no-lru-lru-lru-srrip-drrip-lru-lru-lru-1core-no
argv[1]: -warmup_instructions
argv[2]: 50000000
argv[3]: -simulation_instructions
argv[4]: 200000000
argv[5]: -traces
argv[6]: traces/spec2k17_ten/657.xz_s-3167B.champsimtrace.xz
CPU 0 runs traces/spec2k17_ten/657.xz_s-3167B.champsimtrace.xz
.xz
CPU 0 Multiperspective perceptron branch predictor
BTB has LRU replacement policy
ITLB has LRU replacement policy
DTLB has LRU replacement policy
STLB has LRU replacement policy
L1I has LRU replacement policy
History Sets: 8
History Ways: 16
BERTI Size: 16
BERTI Stride Size: 16
L1D has LRU replacement policy
Initialize SRRIP state for L2C
Initialize DRRIP state for LLC
Heartbeat CPU 0 instructions: 10000000 cycles: 2857109 heartbeat IPC: 3.50004 cumulative IPC: 3.50004 (Simulation time: 0 hr 7 min 20 sec) 
Heartbeat CPU 0 instructions: 20000002 cycles: 5715655 heartbeat IPC: 3.49828 cumulative IPC: 3.49916 (Simulation time: 0 hr 14 min 9 sec) 
Heartbeat CPU 0 instructions: 30000003 cycles: 8550480 heartbeat IPC: 3.52755 cumulative IPC: 3.50858 (Simulation time: 0 hr 18 min 29 sec) 
Heartbeat CPU 0 instructions: 40000000 cycles: 11388628 heartbeat IPC: 3.52342 cumulative IPC: 3.51228 (Simulation time: 0 hr 23 min 28 sec) 
Heartbeat CPU 0 instructions: 50000001 cycles: 14237996 heartbeat IPC: 3.50955 cumulative IPC: 3.51173 (Simulation time: 0 hr 28 min 47 sec) 

Warmup complete CPU 0 instructions: 50000001 cycles: 14237996 (Simulation time: 0 hr 28 min 47 sec) 

Heartbeat CPU 0 instructions: 60000001 cycles: 29356910 heartbeat IPC: 0.661423 cumulative IPC: 0.661423 (Simulation time: 0 hr 34 min 58 sec) 
Heartbeat CPU 0 instructions: 70000000 cycles: 43926464 heartbeat IPC: 0.686363 cumulative IPC: 0.673662 (Simulation time: 0 hr 40 min 47 sec) 
Heartbeat CPU 0 instructions: 80000002 cycles: 58760717 heartbeat IPC: 0.674116 cumulative IPC: 0.673813 (Simulation time: 0 hr 46 min 59 sec) 
Heartbeat CPU 0 instructions: 90000001 cycles: 72870487 heartbeat IPC: 0.708729 cumulative IPC: 0.682216 (Simulation time: 0 hr 52 min 28 sec) 
Heartbeat CPU 0 instructions: 100000001 cycles: 87604072 heartbeat IPC: 0.678721 cumulative IPC: 0.681514 (Simulation time: 0 hr 58 min 4 sec) 
Heartbeat CPU 0 instructions: 110000000 cycles: 102363826 heartbeat IPC: 0.677518 cumulative IPC: 0.680845 (Simulation time: 1 hr 3 min 56 sec) 
Heartbeat CPU 0 instructions: 120000003 cycles: 116591492 heartbeat IPC: 0.702856 cumulative IPC: 0.683904 (Simulation time: 1 hr 10 min 6 sec) 
Heartbeat CPU 0 instructions: 130000003 cycles: 130098523 heartbeat IPC: 0.740355 cumulative IPC: 0.690485 (Simulation time: 1 hr 15 min 57 sec) 
Heartbeat CPU 0 instructions: 140000001 cycles: 144356959 heartbeat IPC: 0.701339 cumulative IPC: 0.691675 (Simulation time: 1 hr 21 min 52 sec) 
Heartbeat CPU 0 instructions: 150000000 cycles: 157949154 heartbeat IPC: 0.735716 cumulative IPC: 0.69584 (Simulation time: 1 hr 27 min 5 sec) 
Heartbeat CPU 0 instructions: 160000002 cycles: 171379146 heartbeat IPC: 0.744602 cumulative IPC: 0.700008 (Simulation time: 1 hr 31 min 6 sec) 
Heartbeat CPU 0 instructions: 170000001 cycles: 186142038 heartbeat IPC: 0.677374 cumulative IPC: 0.698064 (Simulation time: 1 hr 35 min 13 sec) 
Heartbeat CPU 0 instructions: 180000001 cycles: 202177859 heartbeat IPC: 0.623604 cumulative IPC: 0.691711 (Simulation time: 1 hr 38 min 56 sec) 
Heartbeat CPU 0 instructions: 190000000 cycles: 219353001 heartbeat IPC: 0.582237 cumulative IPC: 0.682544 (Simulation time: 1 hr 42 min 7 sec) 
Heartbeat CPU 0 instructions: 200000000 cycles: 235706773 heartbeat IPC: 0.61148 cumulative IPC: 0.677296 (Simulation time: 1 hr 45 min 10 sec) 
Heartbeat CPU 0 instructions: 210000001 cycles: 251976566 heartbeat IPC: 0.614636 cumulative IPC: 0.673008 (Simulation time: 1 hr 47 min 4 sec) 
Heartbeat CPU 0 instructions: 220000000 cycles: 267508245 heartbeat IPC: 0.643845 cumulative IPC: 0.67122 (Simulation time: 1 hr 49 min 1 sec) 
Heartbeat CPU 0 instructions: 230000002 cycles: 282398954 heartbeat IPC: 0.67156 cumulative IPC: 0.671239 (Simulation time: 1 hr 50 min 52 sec) 
Heartbeat CPU 0 instructions: 240000001 cycles: 297219489 heartbeat IPC: 0.674739 cumulative IPC: 0.671422 (Simulation time: 1 hr 52 min 23 sec) 
Heartbeat CPU 0 instructions: 250000001 cycles: 311238522 heartbeat IPC: 0.713316 cumulative IPC: 0.6734 (Simulation time: 1 hr 53 min 40 sec) 
Finished CPU 0 instructions: 200000000 cycles: 297000526 cumulative IPC: 0.6734 (Simulation time: 1 hr 53 min 40 sec) 

ChampSim completed all CPUs

Region of Interest Statistics

CPU 0 cumulative IPC: 0.6734 instructions: 200000000 cycles: 297000526
ITLB TOTAL     ACCESS:   30322748  HIT:   30322748  MISS:          0  HIT %:        100  MISS %:          0   MPKI: 0
ITLB LOAD TRANSLATION ACCESS:   30322748  HIT:   30322748  MISS:          0  HIT %:        100  MISS %:          0   MPKI: 0
ITLB PREFETCH  REQUESTED:          0  ISSUED:          0  USEFUL:          0  USELESS:          0
ITLB USEFUL LOAD PREFETCHES:          0 PREFETCH ISSUED TO LOWER LEVEL:          0  ACCURACY: -nan
ITLB TIMELY PREFETCHES:          0 LATE PREFETCHES: 0 DROPPED PREFETCHES: 0
ITLB PREFETCHES SAME FILL-ORIGIN LEVEL: 0 DIFFERENT FILL-ORIGIN LEVEL: 0
ITLB AVERAGE MISS LATENCY: -nan cycles
ITLB RQ	ACCESS:   35571936	FORWARD:          0	MERGED:    5249189	TO_CACHE:   30322747

DTLB TOTAL     ACCESS:   37907445  HIT:   36892801  MISS:    1014644  HIT %:    97.3234  MISS %:    2.67664   MPKI: 5.07322
DTLB LOAD TRANSLATION ACCESS:   37907445  HIT:   36892801  MISS:    1014644  HIT %:    97.3234  MISS %:    2.67664   MPKI: 5.07322
DTLB PREFETCH  REQUESTED:          0  ISSUED:          0  USEFUL:          0  USELESS:          0
DTLB USEFUL LOAD PREFETCHES:          0 PREFETCH ISSUED TO LOWER LEVEL:          0  ACCURACY: -nan
DTLB TIMELY PREFETCHES:          0 LATE PREFETCHES: 0 DROPPED PREFETCHES: 0
DTLB PREFETCHES SAME FILL-ORIGIN LEVEL: 0 DIFFERENT FILL-ORIGIN LEVEL: 0
DTLB AVERAGE MISS LATENCY: 12.0905 cycles
DTLB RQ	ACCESS:   44942271	FORWARD:          0	MERGED:    7026477	TO_CACHE:   37915794

STLB TOTAL     ACCESS:    2156509  HIT:    2053473  MISS:     103036  HIT %:    95.2221  MISS %:    4.77791   MPKI: 0.51518
STLB LOAD TRANSLATION ACCESS:    1014644  HIT:     912240  MISS:     102404  HIT %:    89.9074  MISS %:    10.0926   MPKI: 0.51202
STLB TRANSLATION FROM L1D PREFETCHER ACCESS:    1141865  HIT:    1141233  MISS:        632  HIT %:    99.9447  MISS %:   0.055348   MPKI: 0.00316
STLB PREFETCH  REQUESTED:          0  ISSUED:          0  USEFUL:        434  USELESS:        198
STLB USEFUL LOAD PREFETCHES:        434 PREFETCH ISSUED TO LOWER LEVEL:          0  ACCURACY: inf
STLB TIMELY PREFETCHES:        434 LATE PREFETCHES: 107 DROPPED PREFETCHES: 7391
STLB PREFETCHES SAME FILL-ORIGIN LEVEL: 0 DIFFERENT FILL-ORIGIN LEVEL: 0
STLB AVERAGE MISS LATENCY: 30.4068 cycles
STLB RQ	ACCESS:    4309553	FORWARD:          0	MERGED:    2143008	TO_CACHE:    2166545

STLB Hit, L1D data hit: 0
STLB Hit, L2C data hit: 0
STLB Hit, LLC data hit: 0
STLB Hit, LLC data miss: 0
STLB STLB hints to L2: 0
L1D TOTAL     ACCESS:   47287277  HIT:   46303709  MISS:     983568  HIT %:      97.92  MISS %:    2.07998   MPKI: 4.91784
L1D LOAD      ACCESS:   31438897  HIT:   30697988  MISS:     740909  HIT %:    97.6433  MISS %:    2.35666   MPKI: 3.70454
L1D RFO       ACCESS:   13354421  HIT:   13131524  MISS:     222897  HIT %:    98.3309  MISS %:    1.66909   MPKI: 1.11448
L1D PREFETCH  ACCESS:    2493959  HIT:    2474197  MISS:      19762  HIT %:    99.2076  MISS %:   0.792395   MPKI: 0.09881
L1D PREFETCH  REQUESTED:    6689759  ISSUED:    6689664  USEFUL:      14218  USELESS:       5544
L1D USEFUL LOAD PREFETCHES:      14218 PREFETCH ISSUED TO LOWER LEVEL:     769962  ACCURACY: 1.84658
L1D TIMELY PREFETCHES:      14218 LATE PREFETCHES: 71 DROPPED PREFETCHES: 21738
L1D PREFETCHES SAME FILL-ORIGIN LEVEL: 19834 DIFFERENT FILL-ORIGIN LEVEL: 750128
L1D AVERAGE MISS LATENCY: 60.2184 cycles
L1D RQ	ACCESS:   46159222	FORWARD:          0	MERGED:   14554935	TO_CACHE:   31500117
L1D WQ	ACCESS:   13607731	FORWARD:     104290	MERGED:     165577	TO_CACHE:   13442154
L1D PQ	ACCESS:    3394755	FORWARD:          0	MERGED:      99726	TO_CACHE:    3294909

L1D UNIQUE REGIONS ACCESSED: 0
L1D REGIONS CONFLICTS: 0
L1D Cross Page Prefetch Requests: 408592
L1D Same Page Prefetch Requests: 3672953
L1D ROI Sum of L1D PQ occupancy: 46667414
L1D PREFETCHES PUSHED FROM L2C: 0
L1I TOTAL     ACCESS:   35571559  HIT:   35570881  MISS:        678  HIT %:    99.9981  MISS %: 0.00190602   MPKI: 0.00339
L1I LOAD      ACCESS:   35571559  HIT:   35570881  MISS:        678  HIT %:    99.9981  MISS %: 0.00190602   MPKI: 0.00339
L1I PREFETCH  REQUESTED:          0  ISSUED:          0  USEFUL:          0  USELESS:          0
L1I USEFUL LOAD PREFETCHES:          0 PREFETCH ISSUED TO LOWER LEVEL:          0  ACCURACY: -nan
L1I TIMELY PREFETCHES:          0 LATE PREFETCHES: 0 DROPPED PREFETCHES: 0
L1I PREFETCHES SAME FILL-ORIGIN LEVEL: 0 DIFFERENT FILL-ORIGIN LEVEL: 0
L1I AVERAGE MISS LATENCY: 43.2625 cycles
L1I RQ	ACCESS:   51437862	FORWARD:          0	MERGED:   15865926	TO_CACHE:   35571936

BTB TOTAL     ACCESS:   28542122  HIT:   28359924  MISS:     182198  HIT %:    99.3617  MISS %:   0.638348   MPKI: 0.91099
BTB BRANCH_DIRECT_JUMP	ACCESS:    1466487  HIT:    1466409  MISS:         78
BTB BRANCH_INDIRECT	ACCESS:     319019  HIT:     145256  MISS:     173763
BTB BRANCH_CONDITIONAL	ACCESS:   26451120  HIT:   26450872  MISS:        248
BTB BRANCH_DIRECT_CALL	ACCESS:     100874  HIT:     100855  MISS:         19
BTB BRANCH_INDIRECT_CALL	ACCESS:      51874  HIT:      51867  MISS:          7
BTB BRANCH_RETURN	ACCESS:     152748  HIT:     144665  MISS:       8083
BTB BRANCH_OTHER ACCESS:          0  HIT:          0  MISS:          0

L2C TOTAL     ACCESS:    2535136  HIT:    2132585  MISS:     402551  HIT %:    84.1211  MISS %:    15.8789   MPKI: 2.01275
L2C LOAD      ACCESS:     741505  HIT:     476540  MISS:     264965  HIT %:    64.2666  MISS %:    35.7334   MPKI: 1.32482
L2C DATA LOAD MPKI: 1.322
L2C INSTRUCTION LOAD MPKI: 0.002825
L2C RFO       ACCESS:     222893  HIT:     155925  MISS:      66968  HIT %:    69.9551  MISS %:    30.0449   MPKI: 0.33484
L2C PREFETCH  ACCESS:     752159  HIT:     711714  MISS:      40445  HIT %:    94.6228  MISS %:    5.37719   MPKI: 0.202225
L2C DATA PREFETCH MPKI: 0.202225
L2C INSTRUCTION PREFETCH MPKI: 0
L2C WRITEBACK ACCESS:     708049  HIT:     698891  MISS:       9158  HIT %:    98.7066  MISS %:    1.29341   MPKI: 0.04579
L2C LOAD TRANSLATION ACCESS:     102400  HIT:      81569  MISS:      20831  HIT %:    79.6572  MISS %:    20.3428   MPKI: 0.104155
L2C TRANSLATION FROM L1D PREFETCHER ACCESS:       8130  HIT:       7946  MISS:        184  HIT %:    97.7368  MISS %:    2.26322   MPKI: 0.00092
L2C PREFETCH  REQUESTED:          0  ISSUED:          0  USEFUL:       7738  USELESS:      32349
L2C USEFUL LOAD PREFETCHES:       7738 PREFETCH ISSUED TO LOWER LEVEL:      40535  ACCURACY: 19.0897
L2C TIMELY PREFETCHES:       7738 LATE PREFETCHES: 90 DROPPED PREFETCHES: 0
L2C PREFETCHES SAME FILL-ORIGIN LEVEL: 32827 DIFFERENT FILL-ORIGIN LEVEL: 0
L2C AVERAGE MISS LATENCY: 121.059 cycles
L2C RQ	ACCESS:    1074942	FORWARD:          0	MERGED:          0	TO_CACHE:    1074928
L2C WQ	ACCESS:     708049	FORWARD:         16	MERGED:          0	TO_CACHE:     708049
L2C PQ	ACCESS:     769962	FORWARD:          0	MERGED:          3	TO_CACHE:     769957

L2C Instructions Evicting Data 515
L2C Translations Evicting Data 20071
L2C Data Evicting Data 351611
L2C Instructions Evicting Instructions 24
L2C Translations Evicting Instructions 24
L2C Data Evicting Instructions 509
L2C Instructions Evicting Translations 26
L2C Translations Evicting Translations 920
L2C Data Evicting Translations 19693
L2C Dense regions hint from L2: 0
PSCL5 TOTAL     ACCESS:     110530  HIT:     110530  MISS:          0  HIT %:        100  MISS %:          0   MPKI: 0
PSCL5 LOAD TRANSLATION ACCESS:     102400  HIT:     102400  MISS:          0  HIT %:        100  MISS %:          0   MPKI: 0
PSCL5 TRANSLATION FROM L1D PREFETCHER ACCESS:       8130  HIT:       8130  MISS:          0  HIT %:        100  MISS %:          0   MPKI: 0
PSCL5 PREFETCH  REQUESTED:          0  ISSUED:          0  USEFUL:          0  USELESS:          0
PSCL5 USEFUL LOAD PREFETCHES:          0 PREFETCH ISSUED TO LOWER LEVEL:          0  ACCURACY: -nan
PSCL5 TIMELY PREFETCHES:          0 LATE PREFETCHES: 0 DROPPED PREFETCHES: 0
PSCL5 PREFETCHES SAME FILL-ORIGIN LEVEL: 0 DIFFERENT FILL-ORIGIN LEVEL: 0

PSCL4 TOTAL     ACCESS:     110530  HIT:     110530  MISS:          0  HIT %:        100  MISS %:          0   MPKI: 0
PSCL4 LOAD TRANSLATION ACCESS:     102400  HIT:     102400  MISS:          0  HIT %:        100  MISS %:          0   MPKI: 0
PSCL4 TRANSLATION FROM L1D PREFETCHER ACCESS:       8130  HIT:       8130  MISS:          0  HIT %:        100  MISS %:          0   MPKI: 0
PSCL4 PREFETCH  REQUESTED:          0  ISSUED:          0  USEFUL:          0  USELESS:          0
PSCL4 USEFUL LOAD PREFETCHES:          0 PREFETCH ISSUED TO LOWER LEVEL:          0  ACCURACY: -nan
PSCL4 TIMELY PREFETCHES:          0 LATE PREFETCHES: 0 DROPPED PREFETCHES: 0
PSCL4 PREFETCHES SAME FILL-ORIGIN LEVEL: 0 DIFFERENT FILL-ORIGIN LEVEL: 0

PSCL3 TOTAL     ACCESS:     110530  HIT:     110530  MISS:          0  HIT %:        100  MISS %:          0   MPKI: 0
PSCL3 LOAD TRANSLATION ACCESS:     102400  HIT:     102400  MISS:          0  HIT %:        100  MISS %:          0   MPKI: 0
PSCL3 TRANSLATION FROM L1D PREFETCHER ACCESS:       8130  HIT:       8130  MISS:          0  HIT %:        100  MISS %:          0   MPKI: 0
PSCL3 PREFETCH  REQUESTED:          0  ISSUED:          0  USEFUL:          0  USELESS:          0
PSCL3 USEFUL LOAD PREFETCHES:          0 PREFETCH ISSUED TO LOWER LEVEL:          0  ACCURACY: -nan
PSCL3 TIMELY PREFETCHES:          0 LATE PREFETCHES: 0 DROPPED PREFETCHES: 0
PSCL3 PREFETCHES SAME FILL-ORIGIN LEVEL: 0 DIFFERENT FILL-ORIGIN LEVEL: 0

PSCL2 TOTAL     ACCESS:     110472  HIT:     110470  MISS:          2  HIT %:    99.9982  MISS %: 0.00181041   MPKI: 1e-05
PSCL2 LOAD TRANSLATION ACCESS:     102400  HIT:     102398  MISS:          2  HIT %:     99.998  MISS %: 0.00195312   MPKI: 1e-05
PSCL2 TRANSLATION FROM L1D PREFETCHER ACCESS:       8072  HIT:       8072  MISS:          0  HIT %:        100  MISS %:          0   MPKI: 0
PSCL2 PREFETCH  REQUESTED:          0  ISSUED:          0  USEFUL:          0  USELESS:          0
PSCL2 USEFUL LOAD PREFETCHES:          0 PREFETCH ISSUED TO LOWER LEVEL:          0  ACCURACY: -nan
PSCL2 TIMELY PREFETCHES:          0 LATE PREFETCHES: 0 DROPPED PREFETCHES: 0
PSCL2 PREFETCHES SAME FILL-ORIGIN LEVEL: 0 DIFFERENT FILL-ORIGIN LEVEL: 0

LLC TOTAL     ACCESS:     630856  HIT:     409157  MISS:     221699  HIT %:    64.8574  MISS %:    35.1426   MPKI: 1.1085
LLC LOAD      ACCESS:     264911  HIT:     127828  MISS:     137083  HIT %:    48.2532  MISS %:    51.7468   MPKI: 0.685415
LLC RFO       ACCESS:      66930  HIT:       8150  MISS:      58780  HIT %:    12.1769  MISS %:    87.8231   MPKI: 0.2939
LLC PREFETCH  ACCESS:      40535  HIT:      21488  MISS:      19047  HIT %:     53.011  MISS %:     46.989   MPKI: 0.095235
LLC WRITEBACK ACCESS:     237465  HIT:     231909  MISS:       5556  HIT %:    97.6603  MISS %:    2.33971   MPKI: 0.02778
LLC LOAD TRANSLATION ACCESS:      20831  HIT:      19640  MISS:       1191  HIT %:    94.2826  MISS %:    5.71744   MPKI: 0.005955
LLC TRANSLATION FROM L1D PREFETCHER ACCESS:        184  HIT:        142  MISS:         42  HIT %:    77.1739  MISS %:    22.8261   MPKI: 0.00021
LLC PREFETCH  REQUESTED:          0  ISSUED:          0  USEFUL:       1380  USELESS:      16978
LLC USEFUL LOAD PREFETCHES:       1380 PREFETCH ISSUED TO LOWER LEVEL:      19047  ACCURACY: 7.24524
LLC TIMELY PREFETCHES:       1380 LATE PREFETCHES: 0 DROPPED PREFETCHES: 0
LLC PREFETCHES SAME FILL-ORIGIN LEVEL: 0 DIFFERENT FILL-ORIGIN LEVEL: 0
LLC AVERAGE MISS LATENCY: 166.542 cycles
LLC RQ	ACCESS:     352858	FORWARD:          0	MERGED:          0	TO_CACHE:     352856
LLC WQ	ACCESS:     237465	FORWARD:          2	MERGED:          0	TO_CACHE:     237465
LLC PQ	ACCESS:      40535	FORWARD:          0	MERGED:          0	TO_CACHE:      40535

LLC Dense regions hint to LLC: 0

RAW hits: 1831087
Loads Generated: 47990311
Loads sent to L1D: 46159222
Stores Generated: 13607724
Stores sent to L1D: 13607731
Major fault: 0 Minor fault: 8260
Allocated PAGES: 8260

DRAM Statistics
 CHANNEL 0
 RQ ROW_BUFFER_HIT:      10509  ROW_BUFFER_MISS:     205633
 DBUS_CONGESTED:          4
 WQ ROW_BUFFER_HIT:      25069  ROW_BUFFER_MISS:     141391  FULL:          0

 AVG_CONGESTED_CYCLE: 4
 All warmup complete: 2
Channel 0 Bank busy for read cycles: 0
Channel 0 Bank busy for write cycles: 0
Channel 0
Rank 0
0banks busy for read cycles: 250835452
0banks busy for write cycles: 102287
1banks busy for read cycles: 22171340
1banks busy for write cycles: 15328841
2banks busy for read cycles: 3142445
2banks busy for write cycles: 3000535
3banks busy for read cycles: 554805
3banks busy for write cycles: 871768
4banks busy for read cycles: 146752
4banks busy for write cycles: 285912
5banks busy for read cycles: 50395
5banks busy for write cycles: 118044
6banks busy for read cycles: 26112
6banks busy for write cycles: 69197
7banks busy for read cycles: 12916
7banks busy for write cycles: 63332
8banks busy for read cycles: 20487
8banks busy for write cycles: 199907

CPU 0 Branch Prediction Accuracy: 96.3404% MPKI: 5.048 Average ROB Occupancy at Mispredict: 24.9424
Branch types
NOT_BRANCH: 170320858 85.1604%
BRANCH_DIRECT_JUMP: 1466487 0.733244%
BRANCH_INDIRECT: 319019 0.159509%
BRANCH_CONDITIONAL: 27588111 13.7941%
BRANCH_DIRECT_CALL: 100874 0.050437%
BRANCH_INDIRECT_CALL: 51874 0.025937%
BRANCH_RETURN: 152748 0.076374%
BRANCH_OTHER: 0 0%

DRAM PAGES: 1048576
Allocated PAGES: 8260
