526208 bits of metadata so far, 405638 left out of 526336 total budget
table size is 13521 bits, 2253 entries for 5 bit, 1931 entries for 6 bit
526208 total bits (64.23KB)

*** ChampSim Multicore Out-of-Order Simulator ***

Warmup Instructions: 50000000
Simulation Instructions: 200000000
Number of CPUs: 1
LLC sets: 2048
LLC ways: 16
Off-chip DRAM Size: 4096 MB Channels: 1 Width: 64-bit Data Rate: 6400 MT/s
argv[0]: ./ChampSim/Berti/bin/multiperspective_perceptron-no-vberti-no-no-no-no-no-lru-lru-lru-srrip-drrip-lru-lru-lru-1core-no
argv[1]: -warmup_instructions
argv[2]: 50000000
argv[3]: -simulation_instructions
argv[4]: 200000000
argv[5]: -traces
argv[6]: traces/spec2k17_ten/657.xz_s-4994B.champsimtrace.xz
CPU 0 runs traces/spec2k17_ten/657.xz_s-4994B.champsimtrace.xz
.xz
CPU 0 Multiperspective perceptron branch predictor
BTB has LRU replacement policy
ITLB has LRU replacement policy
DTLB has LRU replacement policy
STLB has LRU replacement policy
L1I has LRU replacement policy
History Sets: 8
History Ways: 16
BERTI Size: 16
BERTI Stride Size: 16
L1D has LRU replacement policy
Initialize SRRIP state for L2C
Initialize DRRIP state for LLC
Heartbeat CPU 0 instructions: 10000001 cycles: 2705481 heartbeat IPC: 3.6962 cumulative IPC: 3.6962 (Simulation time: 0 hr 6 min 5 sec) 
Heartbeat CPU 0 instructions: 20000003 cycles: 5408732 heartbeat IPC: 3.69925 cumulative IPC: 3.69772 (Simulation time: 0 hr 12 min 27 sec) 
Heartbeat CPU 0 instructions: 30000000 cycles: 8120841 heartbeat IPC: 3.68717 cumulative IPC: 3.6942 (Simulation time: 0 hr 18 min 13 sec) 
Heartbeat CPU 0 instructions: 40000000 cycles: 10839346 heartbeat IPC: 3.67849 cumulative IPC: 3.69026 (Simulation time: 0 hr 21 min 23 sec) 
Heartbeat CPU 0 instructions: 50000000 cycles: 13548453 heartbeat IPC: 3.69125 cumulative IPC: 3.69046 (Simulation time: 0 hr 26 min 0 sec) 

Warmup complete CPU 0 instructions: 50000004 cycles: 13548454 (Simulation time: 0 hr 26 min 0 sec) 

Heartbeat CPU 0 instructions: 60000001 cycles: 28815833 heartbeat IPC: 0.654991 cumulative IPC: 0.654991 (Simulation time: 0 hr 30 min 23 sec) 
Heartbeat CPU 0 instructions: 70000003 cycles: 43826760 heartbeat IPC: 0.666182 cumulative IPC: 0.660539 (Simulation time: 0 hr 35 min 29 sec) 
Heartbeat CPU 0 instructions: 80000000 cycles: 58935181 heartbeat IPC: 0.661882 cumulative IPC: 0.660986 (Simulation time: 0 hr 40 min 55 sec) 
Heartbeat CPU 0 instructions: 90000001 cycles: 74345361 heartbeat IPC: 0.648922 cumulative IPC: 0.657928 (Simulation time: 0 hr 46 min 10 sec) 
Heartbeat CPU 0 instructions: 100000000 cycles: 89421930 heartbeat IPC: 0.663281 cumulative IPC: 0.658992 (Simulation time: 0 hr 51 min 7 sec) 
Heartbeat CPU 0 instructions: 110000000 cycles: 104580299 heartbeat IPC: 0.659702 cumulative IPC: 0.65911 (Simulation time: 0 hr 55 min 39 sec) 
Heartbeat CPU 0 instructions: 120000002 cycles: 119860266 heartbeat IPC: 0.654452 cumulative IPC: 0.65844 (Simulation time: 1 hr 0 min 47 sec) 
Heartbeat CPU 0 instructions: 130000003 cycles: 135463574 heartbeat IPC: 0.64089 cumulative IPC: 0.656194 (Simulation time: 1 hr 6 min 10 sec) 
Heartbeat CPU 0 instructions: 140000002 cycles: 150958902 heartbeat IPC: 0.645356 cumulative IPC: 0.654972 (Simulation time: 1 hr 10 min 28 sec) 
Heartbeat CPU 0 instructions: 150000002 cycles: 167521104 heartbeat IPC: 0.603784 cumulative IPC: 0.649466 (Simulation time: 1 hr 14 min 10 sec) 
Heartbeat CPU 0 instructions: 160000000 cycles: 183013858 heartbeat IPC: 0.645463 cumulative IPC: 0.6491 (Simulation time: 1 hr 17 min 54 sec) 
Heartbeat CPU 0 instructions: 170000003 cycles: 198641315 heartbeat IPC: 0.6399 cumulative IPC: 0.648323 (Simulation time: 1 hr 23 min 2 sec) 
Heartbeat CPU 0 instructions: 180000002 cycles: 214431934 heartbeat IPC: 0.633287 cumulative IPC: 0.647141 (Simulation time: 1 hr 28 min 12 sec) 
Heartbeat CPU 0 instructions: 190000003 cycles: 231280550 heartbeat IPC: 0.593521 cumulative IPC: 0.642992 (Simulation time: 1 hr 32 min 27 sec) 
Heartbeat CPU 0 instructions: 200000003 cycles: 246734697 heartbeat IPC: 0.647076 cumulative IPC: 0.643263 (Simulation time: 1 hr 36 min 16 sec) 
Heartbeat CPU 0 instructions: 210000001 cycles: 262482852 heartbeat IPC: 0.634995 cumulative IPC: 0.64274 (Simulation time: 1 hr 39 min 50 sec) 
Heartbeat CPU 0 instructions: 220000000 cycles: 276138747 heartbeat IPC: 0.732284 cumulative IPC: 0.647396 (Simulation time: 1 hr 42 min 46 sec) 
Heartbeat CPU 0 instructions: 230000002 cycles: 290583357 heartbeat IPC: 0.6923 cumulative IPC: 0.649738 (Simulation time: 1 hr 44 min 58 sec) 
Heartbeat CPU 0 instructions: 240000001 cycles: 307514765 heartbeat IPC: 0.590618 cumulative IPC: 0.646333 (Simulation time: 1 hr 46 min 49 sec) 
Heartbeat CPU 0 instructions: 250000002 cycles: 322992685 heartbeat IPC: 0.646082 cumulative IPC: 0.64632 (Simulation time: 1 hr 48 min 28 sec) 
Finished CPU 0 instructions: 200000002 cycles: 309444232 cumulative IPC: 0.64632 (Simulation time: 1 hr 48 min 28 sec) 

ChampSim completed all CPUs

Region of Interest Statistics

CPU 0 cumulative IPC: 0.64632 instructions: 200000002 cycles: 309444232
ITLB TOTAL     ACCESS:   29787994  HIT:   29787993  MISS:          1  HIT %:        100  MISS %: 3.35706e-06   MPKI: 5e-06
ITLB LOAD TRANSLATION ACCESS:   29787994  HIT:   29787993  MISS:          1  HIT %:        100  MISS %: 3.35706e-06   MPKI: 5e-06
ITLB PREFETCH  REQUESTED:          0  ISSUED:          0  USEFUL:          0  USELESS:          0
ITLB USEFUL LOAD PREFETCHES:          0 PREFETCH ISSUED TO LOWER LEVEL:          0  ACCURACY: -nan
ITLB TIMELY PREFETCHES:          0 LATE PREFETCHES: 0 DROPPED PREFETCHES: 0
ITLB PREFETCHES SAME FILL-ORIGIN LEVEL: 0 DIFFERENT FILL-ORIGIN LEVEL: 0
ITLB AVERAGE MISS LATENCY: 150 cycles
ITLB RQ	ACCESS:   37557707	FORWARD:          0	MERGED:    7769714	TO_CACHE:   29787993

DTLB TOTAL     ACCESS:   27973982  HIT:   27959164  MISS:      14818  HIT %:     99.947  MISS %:  0.0529706   MPKI: 0.07409
DTLB LOAD TRANSLATION ACCESS:   27973982  HIT:   27959164  MISS:      14818  HIT %:     99.947  MISS %:  0.0529706   MPKI: 0.07409
DTLB PREFETCH  REQUESTED:          0  ISSUED:          0  USEFUL:          0  USELESS:          0
DTLB USEFUL LOAD PREFETCHES:          0 PREFETCH ISSUED TO LOWER LEVEL:          0  ACCURACY: -nan
DTLB TIMELY PREFETCHES:          0 LATE PREFETCHES: 0 DROPPED PREFETCHES: 0
DTLB PREFETCHES SAME FILL-ORIGIN LEVEL: 0 DIFFERENT FILL-ORIGIN LEVEL: 0
DTLB AVERAGE MISS LATENCY: 21.3335 cycles
DTLB RQ	ACCESS:   33027466	FORWARD:          0	MERGED:    5052595	TO_CACHE:   27974871

STLB TOTAL     ACCESS:    1665712  HIT:    1664360  MISS:       1352  HIT %:    99.9188  MISS %:  0.0811665   MPKI: 0.00676
STLB LOAD TRANSLATION ACCESS:      14819  HIT:      13467  MISS:       1352  HIT %:    90.8766  MISS %:    9.12342   MPKI: 0.00676
STLB TRANSLATION FROM L1D PREFETCHER ACCESS:    1650893  HIT:    1650893  MISS:          0  HIT %:        100  MISS %:          0   MPKI: 0
STLB PREFETCH  REQUESTED:          0  ISSUED:          0  USEFUL:          0  USELESS:          0
STLB USEFUL LOAD PREFETCHES:          0 PREFETCH ISSUED TO LOWER LEVEL:          0  ACCURACY: -nan
STLB TIMELY PREFETCHES:          0 LATE PREFETCHES: 154 DROPPED PREFETCHES: 59271
STLB PREFETCHES SAME FILL-ORIGIN LEVEL: 0 DIFFERENT FILL-ORIGIN LEVEL: 0
STLB AVERAGE MISS LATENCY: 123.337 cycles
STLB RQ	ACCESS:    4854405	FORWARD:          0	MERGED:    3126268	TO_CACHE:    1728137

STLB Hit, L1D data hit: 0
STLB Hit, L2C data hit: 0
STLB Hit, LLC data hit: 0
STLB Hit, LLC data miss: 0
STLB STLB hints to L2: 0
L1D TOTAL     ACCESS:   36383496  HIT:   36213156  MISS:     170340  HIT %:    99.5318  MISS %:   0.468179   MPKI: 0.8517
L1D LOAD      ACCESS:   19483749  HIT:   19402405  MISS:      81344  HIT %:    99.5825  MISS %:   0.417497   MPKI: 0.40672
L1D RFO       ACCESS:   13260355  HIT:   13185348  MISS:      75007  HIT %:    99.4344  MISS %:   0.565649   MPKI: 0.375035
L1D PREFETCH  ACCESS:    3639392  HIT:    3625403  MISS:      13989  HIT %:    99.6156  MISS %:   0.384377   MPKI: 0.069945
L1D PREFETCH  REQUESTED:    9781900  ISSUED:    9781674  USEFUL:      13120  USELESS:        877
L1D USEFUL LOAD PREFETCHES:      13120 PREFETCH ISSUED TO LOWER LEVEL:    1005204  ACCURACY: 1.30521
L1D TIMELY PREFETCHES:      13120 LATE PREFETCHES: 194 DROPPED PREFETCHES: 164418
L1D PREFETCHES SAME FILL-ORIGIN LEVEL: 14183 DIFFERENT FILL-ORIGIN LEVEL: 991021
L1D AVERAGE MISS LATENCY: 79.7166 cycles
L1D RQ	ACCESS:   24421940	FORWARD:          0	MERGED:    4614180	TO_CACHE:   19492924
L1D WQ	ACCESS:   13650915	FORWARD:     314851	MERGED:     116373	TO_CACHE:   13534542
L1D PQ	ACCESS:    4942088	FORWARD:          0	MERGED:     102487	TO_CACHE:    4839586

L1D UNIQUE REGIONS ACCESSED: 0
L1D REGIONS CONFLICTS: 0
L1D Cross Page Prefetch Requests: 504531
L1D Same Page Prefetch Requests: 4974331
L1D ROI Sum of L1D PQ occupancy: 70313242
L1D PREFETCHES PUSHED FROM L2C: 0
L1I TOTAL     ACCESS:   37557671  HIT:   37557522  MISS:        149  HIT %:    99.9996  MISS %: 0.000396723   MPKI: 0.000745
L1I LOAD      ACCESS:   37557671  HIT:   37557522  MISS:        149  HIT %:    99.9996  MISS %: 0.000396723   MPKI: 0.000745
L1I PREFETCH  REQUESTED:          0  ISSUED:          0  USEFUL:          0  USELESS:          0
L1I USEFUL LOAD PREFETCHES:          0 PREFETCH ISSUED TO LOWER LEVEL:          0  ACCURACY: -nan
L1I TIMELY PREFETCHES:          0 LATE PREFETCHES: 0 DROPPED PREFETCHES: 0
L1I PREFETCHES SAME FILL-ORIGIN LEVEL: 0 DIFFERENT FILL-ORIGIN LEVEL: 0
L1I AVERAGE MISS LATENCY: 187.738 cycles
L1I RQ	ACCESS:   54524881	FORWARD:          0	MERGED:   16967174	TO_CACHE:   37557707

BTB TOTAL     ACCESS:   20840505  HIT:   20822598  MISS:      17907  HIT %:    99.9141  MISS %:   0.085924   MPKI: 0.089535
BTB BRANCH_DIRECT_JUMP	ACCESS:    6409318  HIT:    6409168  MISS:        150
BTB BRANCH_INDIRECT	ACCESS:      25122  HIT:       8677  MISS:      16445
BTB BRANCH_CONDITIONAL	ACCESS:   14201921  HIT:   14201603  MISS:        318
BTB BRANCH_DIRECT_CALL	ACCESS:     100457  HIT:     100443  MISS:         14
BTB BRANCH_INDIRECT_CALL	ACCESS:       1615  HIT:       1608  MISS:          7
BTB BRANCH_RETURN	ACCESS:     102072  HIT:     101099  MISS:        973
BTB BRANCH_OTHER ACCESS:          0  HIT:          0  MISS:          0

L2C TOTAL     ACCESS:    1297667  HIT:    1208454  MISS:      89213  HIT %:    93.1251  MISS %:    6.87488   MPKI: 0.446065
L2C LOAD      ACCESS:      81299  HIT:      66166  MISS:      15133  HIT %:     81.386  MISS %:     18.614   MPKI: 0.075665
L2C DATA LOAD MPKI: 0.074935
L2C INSTRUCTION LOAD MPKI: 0.00073
L2C RFO       ACCESS:      75007  HIT:      25628  MISS:      49379  HIT %:    34.1675  MISS %:    65.8325   MPKI: 0.246895
L2C PREFETCH  ACCESS:     989073  HIT:     965675  MISS:      23398  HIT %:    97.6344  MISS %:    2.36565   MPKI: 0.11699
L2C DATA PREFETCH MPKI: 0.11699
L2C INSTRUCTION PREFETCH MPKI: 0
L2C WRITEBACK ACCESS:      91511  HIT:      90521  MISS:        990  HIT %:    98.9182  MISS %:    1.08184   MPKI: 0.00495
L2C LOAD TRANSLATION ACCESS:       1352  HIT:       1097  MISS:        255  HIT %:    81.1391  MISS %:    18.8609   MPKI: 0.001275
L2C TRANSLATION FROM L1D PREFETCHER ACCESS:      59425  HIT:      59367  MISS:         58  HIT %:    99.9024  MISS %:   0.097602   MPKI: 0.00029
L2C PREFETCH  REQUESTED:          0  ISSUED:          0  USEFUL:      12286  USELESS:      12866
L2C USEFUL LOAD PREFETCHES:      12286 PREFETCH ISSUED TO LOWER LEVEL:      23431  ACCURACY: 52.4348
L2C TIMELY PREFETCHES:      12286 LATE PREFETCHES: 33 DROPPED PREFETCHES: 0
L2C PREFETCHES SAME FILL-ORIGIN LEVEL: 15095 DIFFERENT FILL-ORIGIN LEVEL: 0
L2C AVERAGE MISS LATENCY: 149.526 cycles
L2C RQ	ACCESS:     217083	FORWARD:          0	MERGED:          0	TO_CACHE:     217083
L2C WQ	ACCESS:      91511	FORWARD:          0	MERGED:          0	TO_CACHE:      91511
L2C PQ	ACCESS:    1005204	FORWARD:          0	MERGED:          9	TO_CACHE:    1005195

L2C Instructions Evicting Data 146
L2C Translations Evicting Data 312
L2C Data Evicting Data 87149
L2C Instructions Evicting Instructions 0
L2C Translations Evicting Instructions 1
L2C Data Evicting Instructions 200
L2C Instructions Evicting Translations 0
L2C Translations Evicting Translations 0
L2C Data Evicting Translations 318
L2C Dense regions hint from L2: 0
PSCL5 TOTAL     ACCESS:      60777  HIT:      60777  MISS:          0  HIT %:        100  MISS %:          0   MPKI: 0
PSCL5 LOAD TRANSLATION ACCESS:       1352  HIT:       1352  MISS:          0  HIT %:        100  MISS %:          0   MPKI: 0
PSCL5 TRANSLATION FROM L1D PREFETCHER ACCESS:      59425  HIT:      59425  MISS:          0  HIT %:        100  MISS %:          0   MPKI: 0
PSCL5 PREFETCH  REQUESTED:          0  ISSUED:          0  USEFUL:          0  USELESS:          0
PSCL5 USEFUL LOAD PREFETCHES:          0 PREFETCH ISSUED TO LOWER LEVEL:          0  ACCURACY: -nan
PSCL5 TIMELY PREFETCHES:          0 LATE PREFETCHES: 0 DROPPED PREFETCHES: 0
PSCL5 PREFETCHES SAME FILL-ORIGIN LEVEL: 0 DIFFERENT FILL-ORIGIN LEVEL: 0

PSCL4 TOTAL     ACCESS:      60777  HIT:      60777  MISS:          0  HIT %:        100  MISS %:          0   MPKI: 0
PSCL4 LOAD TRANSLATION ACCESS:       1352  HIT:       1352  MISS:          0  HIT %:        100  MISS %:          0   MPKI: 0
PSCL4 TRANSLATION FROM L1D PREFETCHER ACCESS:      59425  HIT:      59425  MISS:          0  HIT %:        100  MISS %:          0   MPKI: 0
PSCL4 PREFETCH  REQUESTED:          0  ISSUED:          0  USEFUL:          0  USELESS:          0
PSCL4 USEFUL LOAD PREFETCHES:          0 PREFETCH ISSUED TO LOWER LEVEL:          0  ACCURACY: -nan
PSCL4 TIMELY PREFETCHES:          0 LATE PREFETCHES: 0 DROPPED PREFETCHES: 0
PSCL4 PREFETCHES SAME FILL-ORIGIN LEVEL: 0 DIFFERENT FILL-ORIGIN LEVEL: 0

PSCL3 TOTAL     ACCESS:      60777  HIT:      60777  MISS:          0  HIT %:        100  MISS %:          0   MPKI: 0
PSCL3 LOAD TRANSLATION ACCESS:       1352  HIT:       1352  MISS:          0  HIT %:        100  MISS %:          0   MPKI: 0
PSCL3 TRANSLATION FROM L1D PREFETCHER ACCESS:      59425  HIT:      59425  MISS:          0  HIT %:        100  MISS %:          0   MPKI: 0
PSCL3 PREFETCH  REQUESTED:          0  ISSUED:          0  USEFUL:          0  USELESS:          0
PSCL3 USEFUL LOAD PREFETCHES:          0 PREFETCH ISSUED TO LOWER LEVEL:          0  ACCURACY: -nan
PSCL3 TIMELY PREFETCHES:          0 LATE PREFETCHES: 0 DROPPED PREFETCHES: 0
PSCL3 PREFETCHES SAME FILL-ORIGIN LEVEL: 0 DIFFERENT FILL-ORIGIN LEVEL: 0

PSCL2 TOTAL     ACCESS:      60777  HIT:      60776  MISS:          1  HIT %:    99.9984  MISS %: 0.00164536   MPKI: 5e-06
PSCL2 LOAD TRANSLATION ACCESS:       1352  HIT:       1351  MISS:          1  HIT %:     99.926  MISS %:  0.0739645   MPKI: 5e-06
PSCL2 TRANSLATION FROM L1D PREFETCHER ACCESS:      59425  HIT:      59425  MISS:          0  HIT %:        100  MISS %:          0   MPKI: 0
PSCL2 PREFETCH  REQUESTED:          0  ISSUED:          0  USEFUL:          0  USELESS:          0
PSCL2 USEFUL LOAD PREFETCHES:          0 PREFETCH ISSUED TO LOWER LEVEL:          0  ACCURACY: -nan
PSCL2 TIMELY PREFETCHES:          0 LATE PREFETCHES: 0 DROPPED PREFETCHES: 0
PSCL2 PREFETCHES SAME FILL-ORIGIN LEVEL: 0 DIFFERENT FILL-ORIGIN LEVEL: 0

LLC TOTAL     ACCESS:     150867  HIT:      71436  MISS:      79431  HIT %:    47.3503  MISS %:    52.6497   MPKI: 0.397155
LLC LOAD      ACCESS:      15118  HIT:       9136  MISS:       5982  HIT %:    60.4313  MISS %:    39.5687   MPKI: 0.02991
LLC RFO       ACCESS:      49361  HIT:        242  MISS:      49119  HIT %:   0.490266  MISS %:    99.5097   MPKI: 0.245595
LLC PREFETCH  ACCESS:      23431  HIT:        730  MISS:      22701  HIT %:    3.11553  MISS %:    96.8845   MPKI: 0.113505
LLC WRITEBACK ACCESS:      62644  HIT:      61212  MISS:       1432  HIT %:    97.7141  MISS %:    2.28593   MPKI: 0.00716
LLC LOAD TRANSLATION ACCESS:        255  HIT:        105  MISS:        150  HIT %:    41.1765  MISS %:    58.8235   MPKI: 0.00075
LLC TRANSLATION FROM L1D PREFETCHER ACCESS:         58  HIT:         11  MISS:         47  HIT %:    18.9655  MISS %:    81.0345   MPKI: 0.000235
LLC PREFETCH  REQUESTED:          0  ISSUED:          0  USEFUL:       1196  USELESS:      19224
LLC USEFUL LOAD PREFETCHES:       1196 PREFETCH ISSUED TO LOWER LEVEL:      22701  ACCURACY: 5.26849
LLC TIMELY PREFETCHES:       1196 LATE PREFETCHES: 0 DROPPED PREFETCHES: 0
LLC PREFETCHES SAME FILL-ORIGIN LEVEL: 0 DIFFERENT FILL-ORIGIN LEVEL: 0
LLC AVERAGE MISS LATENCY: 134.522 cycles
LLC RQ	ACCESS:      64792	FORWARD:          0	MERGED:          0	TO_CACHE:      64792
LLC WQ	ACCESS:      62644	FORWARD:          0	MERGED:          0	TO_CACHE:      62644
LLC PQ	ACCESS:      23431	FORWARD:          0	MERGED:          0	TO_CACHE:      23431

LLC Dense regions hint to LLC: 0

RAW hits: 1943843
Loads Generated: 26365783
Loads sent to L1D: 24421940
Stores Generated: 13650902
Stores sent to L1D: 13650915
Major fault: 0 Minor fault: 1579
Allocated PAGES: 1579

DRAM Statistics
 CHANNEL 0
 RQ ROW_BUFFER_HIT:      28330  ROW_BUFFER_MISS:      49669
 DBUS_CONGESTED:          1
 WQ ROW_BUFFER_HIT:       5926  ROW_BUFFER_MISS:      34265  FULL:          0

 AVG_CONGESTED_CYCLE: 7
 All warmup complete: 2
Channel 0 Bank busy for read cycles: 0
Channel 0 Bank busy for write cycles: 0
Channel 0
Rank 0
0banks busy for read cycles: 299078785
0banks busy for write cycles: 14577
1banks busy for read cycles: 6345549
1banks busy for write cycles: 1932662
2banks busy for read cycles: 752908
2banks busy for write cycles: 233161
3banks busy for read cycles: 111907
3banks busy for write cycles: 111487
4banks busy for read cycles: 91018
4banks busy for write cycles: 114925
5banks busy for read cycles: 19133
5banks busy for write cycles: 63910
6banks busy for read cycles: 11163
6banks busy for write cycles: 49887
7banks busy for read cycles: 3474
7banks busy for write cycles: 69542
8banks busy for read cycles: 16148
8banks busy for write cycles: 423997

CPU 0 Branch Prediction Accuracy: 84.2864% MPKI: 11.6954 Average ROB Occupancy at Mispredict: 18.1982
Branch types
NOT_BRANCH: 178475306 89.2377%
BRANCH_DIRECT_JUMP: 6409318 3.20466%
BRANCH_INDIRECT: 25122 0.012561%
BRANCH_CONDITIONAL: 14885750 7.44287%
BRANCH_DIRECT_CALL: 100457 0.0502285%
BRANCH_INDIRECT_CALL: 1615 0.0008075%
BRANCH_RETURN: 102072 0.051036%
BRANCH_OTHER: 0 0%

DRAM PAGES: 1048576
Allocated PAGES: 1579
